# generated using pymatgen
data_AcAgAu2
_symmetry_space_group_name_H-M   'P 1'
_cell_length_a   5.26788616
_cell_length_b   5.27303934
_cell_length_c   5.26582336
_cell_angle_alpha   59.74027252
_cell_angle_beta   59.82349396
_cell_angle_gamma   59.84555435
_symmetry_Int_Tables_number   1
_chemical_formula_structural   AcAgAu2
_chemical_formula_sum   'Ac1 Ag1 Au2'
_cell_volume   102.96803101
_cell_formula_units_Z   1
loop_
 _symmetry_equiv_pos_site_id
 _symmetry_equiv_pos_as_xyz
  1  'x, y, z'
loop_
 _atom_site_type_symbol
 _atom_site_label
 _atom_site_symmetry_multiplicity
 _atom_site_fract_x
 _atom_site_fract_y
 _atom_site_fract_z
 _atom_site_occupancy
  Ac  Ac0  1  0.00660485  0.51638627  0.66711515  1
  Ag  Ag1  1  0.50579524  0.01635770  0.16771626  1
  Au  Au2  1  0.25629684  0.76657832  0.91696310  1
  Au  Au3  1  0.75623125  0.26704288  0.41676480  1
