# generated using pymatgen
data_AcY3
_symmetry_space_group_name_H-M   'P 1'
_cell_length_a   5.29540062
_cell_length_b   5.29186487
_cell_length_c   6.37812567
_cell_angle_alpha   114.69969177
_cell_angle_beta   114.45456696
_cell_angle_gamma   89.99170685
_symmetry_Int_Tables_number   1
_chemical_formula_structural   AcY3
_chemical_formula_sum   'Ac1 Y3'
_cell_volume   144.54808980
_cell_formula_units_Z   1
loop_
 _symmetry_equiv_pos_site_id
 _symmetry_equiv_pos_as_xyz
  1  'x, y, z'
loop_
 _atom_site_type_symbol
 _atom_site_label
 _atom_site_symmetry_multiplicity
 _atom_site_fract_x
 _atom_site_fract_y
 _atom_site_fract_z
 _atom_site_occupancy
  Ac  Ac0  1  0.23963435  0.96864915  0.99584401  1
  Y  Y1  1  0.73876929  0.46889642  0.99621934  1
  Y  Y2  1  0.98923421  0.21890268  0.49617261  1
  Y  Y3  1  0.48930448  0.71844971  0.49578533  1
