# generated using pymatgen
data_AcZnAu2
_symmetry_space_group_name_H-M   'P 1'
_cell_length_a   5.16754198
_cell_length_b   5.16179323
_cell_length_c   5.16135883
_cell_angle_alpha   59.96500778
_cell_angle_beta   59.90095520
_cell_angle_gamma   59.99706650
_symmetry_Int_Tables_number   1
_chemical_formula_structural   AcZnAu2
_chemical_formula_sum   'Ac1 Zn1 Au2'
_cell_volume   97.24854560
_cell_formula_units_Z   1
loop_
 _symmetry_equiv_pos_site_id
 _symmetry_equiv_pos_as_xyz
  1  'x, y, z'
loop_
 _atom_site_type_symbol
 _atom_site_label
 _atom_site_symmetry_multiplicity
 _atom_site_fract_x
 _atom_site_fract_y
 _atom_site_fract_z
 _atom_site_occupancy
  Ac  Ac0  1  0.96938473  0.99878603  0.51188755  1
  Zn  Zn1  1  0.46965453  0.49848062  0.01177128  1
  Au  Au2  1  0.21965617  0.24915223  0.76159704  1
  Au  Au3  1  0.71899986  0.74951595  0.26208037  1
