# generated using pymatgen
data_Ag2BiSbSe4
_symmetry_space_group_name_H-M   'P 1'
_cell_length_a   5.82650948
_cell_length_b   5.84423161
_cell_length_c   7.18384695
_cell_angle_alpha   113.96729279
_cell_angle_beta   113.96966553
_cell_angle_gamma   90.07699585
_symmetry_Int_Tables_number   1
_chemical_formula_structural   Ag2BiSbSe4
_chemical_formula_sum   'Ag2 Bi1 Sb1 Se4'
_cell_volume   200.15620528
_cell_formula_units_Z   1
loop_
 _symmetry_equiv_pos_site_id
 _symmetry_equiv_pos_as_xyz
  1  'x, y, z'
loop_
 _atom_site_type_symbol
 _atom_site_label
 _atom_site_symmetry_multiplicity
 _atom_site_fract_x
 _atom_site_fract_y
 _atom_site_fract_z
 _atom_site_occupancy
  Ag  Ag0  1  0.28096184  0.82250583  0.57300782  1
  Ag  Ag1  1  0.03147820  0.07221750  0.07395021  1
  Bi  Bi2  1  0.78036666  0.32223839  0.57285023  1
  Sb  Sb3  1  0.53035748  0.57170904  0.07369536  1
  Se  Se4  1  0.28499508  0.32736632  0.58686191  1
  Se  Se5  1  0.77579623  0.81980866  0.56173474  1
  Se  Se6  1  0.53134882  0.07304117  0.07416015  1
  Se  Se7  1  0.03082847  0.57222170  0.07410105  1
