# generated using pymatgen
data_Ag2Se
_symmetry_space_group_name_H-M   'P 1'
_cell_length_a   5.32675695
_cell_length_b   7.12381458
_cell_length_c   7.56538916
_cell_angle_alpha   89.88231659
_cell_angle_beta   89.93857574
_cell_angle_gamma   89.89733887
_symmetry_Int_Tables_number   1
_chemical_formula_structural   Ag2Se
_chemical_formula_sum   'Ag8 Se4'
_cell_volume   287.08129741
_cell_formula_units_Z   4
loop_
 _symmetry_equiv_pos_site_id
 _symmetry_equiv_pos_as_xyz
  1  'x, y, z'
loop_
 _atom_site_type_symbol
 _atom_site_label
 _atom_site_symmetry_multiplicity
 _atom_site_fract_x
 _atom_site_fract_y
 _atom_site_fract_z
 _atom_site_occupancy
  Ag  Ag0  1  0.69741696  0.72878027  0.43131834  1
  Ag  Ag1  1  0.19775109  0.37660009  0.42917326  1
  Ag  Ag2  1  0.19698650  0.88237721  0.74549687  1
  Ag  Ag3  1  0.69735259  0.22896518  0.24580674  1
  Ag  Ag4  1  0.19763726  0.38060582  0.93180543  1
  Ag  Ag5  1  0.69773352  0.72919023  0.92849827  1
  Ag  Ag6  1  0.19779189  0.87613589  0.24387550  1
  Ag  Ag7  1  0.69783127  0.22874317  0.74515682  1
  Se  Se8  1  0.44314095  0.05177209  0.50108558  1
  Se  Se9  1  0.44330987  0.55317396  0.17930171  1
  Se  Se10  1  0.94335598  0.55074638  0.67901546  1
  Se  Se11  1  0.94313997  0.05284191  0.00146817  1
