# generated using pymatgen
data_Ag2S
_symmetry_space_group_name_H-M   'P 1'
_cell_length_a   4.47309351
_cell_length_b   4.52146721
_cell_length_c   6.19060755
_cell_angle_alpha   89.62823486
_cell_angle_beta   90.22089386
_cell_angle_gamma   91.75039673
_symmetry_Int_Tables_number   1
_chemical_formula_structural   Ag2S
_chemical_formula_sum   'Ag4 S2'
_cell_volume   125.14280588
_cell_formula_units_Z   2
loop_
 _symmetry_equiv_pos_site_id
 _symmetry_equiv_pos_as_xyz
  1  'x, y, z'
loop_
 _atom_site_type_symbol
 _atom_site_label
 _atom_site_symmetry_multiplicity
 _atom_site_fract_x
 _atom_site_fract_y
 _atom_site_fract_z
 _atom_site_occupancy
  Ag  Ag0  1  0.16883704  0.76620281  0.35660446  1
  Ag  Ag1  1  0.51487088  0.43952560  0.02483247  1
  Ag  Ag2  1  0.01560313  0.94027358  0.85732716  1
  Ag  Ag3  1  0.66745859  0.26531112  0.52408797  1
  S  S4  1  0.66715837  0.93774283  0.19314019  1
  S  S5  1  0.16668214  0.43831098  0.69304091  1
