# generated using pymatgen
data_Ag6S2IBr
_symmetry_space_group_name_H-M   'P 1'
_cell_length_a   6.57348585
_cell_length_b   6.55776501
_cell_length_c   6.98800945
_cell_angle_alpha   115.45052338
_cell_angle_beta   115.93537903
_cell_angle_gamma   92.40630341
_symmetry_Int_Tables_number   1
_chemical_formula_structural   Ag6S2IBr
_chemical_formula_sum   'Ag6 S2 I1 Br1'
_cell_volume   234.59683328
_cell_formula_units_Z   1
loop_
 _symmetry_equiv_pos_site_id
 _symmetry_equiv_pos_as_xyz
  1  'x, y, z'
loop_
 _atom_site_type_symbol
 _atom_site_label
 _atom_site_symmetry_multiplicity
 _atom_site_fract_x
 _atom_site_fract_y
 _atom_site_fract_z
 _atom_site_occupancy
  Ag  Ag0  1  0.93965155  0.27318650  0.42733631  1
  Ag  Ag1  1  0.27510190  0.19788490  0.87601733  1
  Ag  Ag2  1  0.72407693  0.57041562  0.89732331  1
  Ag  Ag3  1  0.32230139  0.73191273  0.63675511  1
  Ag  Ag4  1  0.16614324  0.92940563  0.13597479  1
  Ag  Ag5  1  0.62336665  0.80846334  0.35267410  1
  S  S6  1  0.28164461  0.59615684  0.88984525  1
  S  S7  1  0.02577050  0.86837626  0.38859859  1
  I  I8  1  0.78155082  0.12108281  0.88374901  1
  Br  Br9  1  0.51775253  0.37272409  0.38188681  1
