# generated using pymatgen
data_AgAsS
_symmetry_space_group_name_H-M   'P 1'
_cell_length_a   6.23267412
_cell_length_b   6.22775412
_cell_length_c   6.56234741
_cell_angle_alpha   89.79666901
_cell_angle_beta   89.90750122
_cell_angle_gamma   90.02153778
_symmetry_Int_Tables_number   1
_chemical_formula_structural   AgAsS
_chemical_formula_sum   'Ag4 As4 S4'
_cell_volume   254.71924783
_cell_formula_units_Z   4
loop_
 _symmetry_equiv_pos_site_id
 _symmetry_equiv_pos_as_xyz
  1  'x, y, z'
loop_
 _atom_site_type_symbol
 _atom_site_label
 _atom_site_symmetry_multiplicity
 _atom_site_fract_x
 _atom_site_fract_y
 _atom_site_fract_z
 _atom_site_occupancy
  Ag  Ag0  1  0.81175804  0.82533032  0.68553388  1
  Ag  Ag1  1  0.31047538  0.32559046  0.68593210  1
  Ag  Ag2  1  0.06149830  0.57859224  0.18527861  1
  Ag  Ag3  1  0.56114793  0.07864879  0.18570435  1
  As  As4  1  0.83992225  0.27916554  0.84575599  1
  As  As5  1  0.34057406  0.77973974  0.84653997  1
  As  As6  1  0.56192154  0.57324648  0.34613097  1
  As  As7  1  0.06028729  0.07168192  0.34614629  1
  S  S8  1  0.04102212  0.96590072  0.00888752  1
  S  S9  1  0.38219517  0.93552619  0.50820941  1
  S  S10  1  0.88197529  0.43377158  0.50856572  1
  S  S11  1  0.54206133  0.46439502  0.00899888  1
