# generated using pymatgen
data_AgBiO3
_symmetry_space_group_name_H-M   'P 1'
_cell_length_a   5.73096657
_cell_length_b   5.72807837
_cell_length_c   5.77159357
_cell_angle_alpha   99.75331116
_cell_angle_beta   99.59173584
_cell_angle_gamma   113.49278259
_symmetry_Int_Tables_number   1
_chemical_formula_structural   AgBiO3
_chemical_formula_sum   'Ag2 Bi2 O6'
_cell_volume   165.40369830
_cell_formula_units_Z   2
loop_
 _symmetry_equiv_pos_site_id
 _symmetry_equiv_pos_as_xyz
  1  'x, y, z'
loop_
 _atom_site_type_symbol
 _atom_site_label
 _atom_site_symmetry_multiplicity
 _atom_site_fract_x
 _atom_site_fract_y
 _atom_site_fract_z
 _atom_site_occupancy
  Ag  Ag0  1  0.29485488  0.17449340  0.27748996  1
  Ag  Ag1  1  0.57145089  0.90079224  0.77584469  1
  Bi  Bi2  1  0.81437510  0.65382314  0.27627295  1
  Bi  Bi3  1  0.02687728  0.43923578  0.77686012  1
  O  O4  1  0.89688098  0.04281211  0.52271825  1
  O  O5  1  0.43450996  0.59049994  0.02188727  1
  O  O6  1  0.01258605  0.79507703  0.02180630  1
  O  O7  1  0.81078261  0.29336038  0.02152134  1
  O  O8  1  0.17310491  0.66701472  0.52414221  1
  O  O9  1  0.67788410  0.45032755  0.52299112  1
