# generated using pymatgen
data_AgBi(PS3)2
_symmetry_space_group_name_H-M   'P 1'
_cell_length_a   6.46518087
_cell_length_b   7.75383568
_cell_length_c   9.96634388
_cell_angle_alpha   89.76802826
_cell_angle_beta   91.71059418
_cell_angle_gamma   90.04148865
_symmetry_Int_Tables_number   1
_chemical_formula_structural   AgBi(PS3)2
_chemical_formula_sum   'Ag2 Bi2 P4 S12'
_cell_volume   499.38548933
_cell_formula_units_Z   2
loop_
 _symmetry_equiv_pos_site_id
 _symmetry_equiv_pos_as_xyz
  1  'x, y, z'
loop_
 _atom_site_type_symbol
 _atom_site_label
 _atom_site_symmetry_multiplicity
 _atom_site_fract_x
 _atom_site_fract_y
 _atom_site_fract_z
 _atom_site_occupancy
  Ag  Ag0  1  0.32025424  0.03991700  0.08804042  1
  Ag  Ag1  1  0.82128006  0.02216195  0.58917266  1
  Bi  Bi2  1  0.81917650  0.37275654  0.31530985  1
  Bi  Bi3  1  0.25976416  0.53860015  0.55300355  1
  P  P4  1  0.30586323  0.87167490  0.78218752  1
  P  P5  1  0.75446361  0.38191935  0.80731428  1
  P  P6  1  0.79882050  0.84598988  0.28386763  1
  P  P7  1  0.31877002  0.53814155  0.08923070  1
  S  S8  1  0.95887578  0.54971981  0.78162849  1
  S  S9  1  0.12481552  0.05018170  0.80844474  1
  S  S10  1  0.42640948  0.70273918  0.93723714  1
  S  S11  1  0.13218196  0.21893817  0.45490485  1
  S  S12  1  0.63894230  0.23401164  0.94920534  1
  S  S13  1  0.44854259  0.56435543  0.27046961  1
  S  S14  1  0.62100160  0.04849842  0.30754924  1
  S  S15  1  0.43882835  0.85161412  0.60846883  1
  S  S16  1  0.92971039  0.85563844  0.10850190  1
  S  S17  1  0.62278128  0.35666662  0.61323440  1
  S  S18  1  0.12388777  0.36156523  0.09915987  1
  S  S19  1  0.92709249  0.71324939  0.43578687  1
