# generated using pymatgen
data_AgI
_symmetry_space_group_name_H-M   'P 1'
_cell_length_a   4.00836229
_cell_length_b   4.06323147
_cell_length_c   4.03952122
_cell_angle_alpha   89.45791626
_cell_angle_beta   90.03904724
_cell_angle_gamma   119.87205505
_symmetry_Int_Tables_number   1
_chemical_formula_structural   AgI
_chemical_formula_sum   'Ag1 I1'
_cell_volume   57.04707765
_cell_formula_units_Z   1
loop_
 _symmetry_equiv_pos_site_id
 _symmetry_equiv_pos_as_xyz
  1  'x, y, z'
loop_
 _atom_site_type_symbol
 _atom_site_label
 _atom_site_symmetry_multiplicity
 _atom_site_fract_x
 _atom_site_fract_y
 _atom_site_fract_z
 _atom_site_occupancy
  Ag  Ag0  1  0.92798072  0.44828370  0.52660954  1
  I  I1  1  0.59476048  0.78109223  0.02594578  1
