# generated using pymatgen
data_AgPt4
_symmetry_space_group_name_H-M   'P 1'
_cell_length_a   2.74599242
_cell_length_b   4.38941431
_cell_length_c   7.28467703
_cell_angle_alpha   106.10319519
_cell_angle_beta   89.59889984
_cell_angle_gamma   109.17842102
_symmetry_Int_Tables_number   1
_chemical_formula_structural   AgPt4
_chemical_formula_sum   'Ag1 Pt4'
_cell_volume   79.33427104
_cell_formula_units_Z   1
loop_
 _symmetry_equiv_pos_site_id
 _symmetry_equiv_pos_as_xyz
  1  'x, y, z'
loop_
 _atom_site_type_symbol
 _atom_site_label
 _atom_site_symmetry_multiplicity
 _atom_site_fract_x
 _atom_site_fract_y
 _atom_site_fract_z
 _atom_site_occupancy
  Ag  Ag0  1  0.80914026  0.20255706  0.33549693  1
  Pt  Pt1  1  0.18837252  0.96366119  0.93911600  1
  Pt  Pt2  1  0.56217182  0.72343737  0.54561901  1
  Pt  Pt3  1  0.87883431  0.34385243  0.74384141  1
  Pt  Pt4  1  0.49824816  0.57683939  0.12687993  1
