# generated using pymatgen
data_AgRuO4
_symmetry_space_group_name_H-M   'P 1'
_cell_length_a   4.73993444
_cell_length_b   5.45541334
_cell_length_c   5.98303699
_cell_angle_alpha   89.83233643
_cell_angle_beta   90.01330566
_cell_angle_gamma   90.11633301
_symmetry_Int_Tables_number   1
_chemical_formula_structural   AgRuO4
_chemical_formula_sum   'Ag2 Ru2 O8'
_cell_volume   154.71018987
_cell_formula_units_Z   2
loop_
 _symmetry_equiv_pos_site_id
 _symmetry_equiv_pos_as_xyz
  1  'x, y, z'
loop_
 _atom_site_type_symbol
 _atom_site_label
 _atom_site_symmetry_multiplicity
 _atom_site_fract_x
 _atom_site_fract_y
 _atom_site_fract_z
 _atom_site_occupancy
  Ag  Ag0  1  0.17022772  0.10119021  0.87058705  1
  Ag  Ag1  1  0.66961789  0.09995732  0.37111872  1
  Ru  Ru2  1  0.66953403  0.60179341  0.02882934  1
  Ru  Ru3  1  0.17144620  0.60083055  0.52883154  1
  O  O4  1  0.91452318  0.73396814  0.29229119  1
  O  O5  1  0.41603908  0.46875453  0.78696424  1
  O  O6  1  0.36665091  0.89911526  0.56051791  1
  O  O7  1  0.91811508  0.73365974  0.78816867  1
  O  O8  1  0.86512506  0.30546537  0.06145122  1
  O  O9  1  0.41841868  0.46479645  0.28876433  1
  O  O10  1  0.46767429  0.89937121  0.06193686  1
  O  O11  1  0.96809745  0.30692908  0.56117088  1
