# generated using pymatgen
data_Al13Os4
_symmetry_space_group_name_H-M   'P 1'
_cell_length_a   4.87766075
_cell_length_b   5.30105019
_cell_length_c   10.53096199
_cell_angle_alpha   91.82765961
_cell_angle_beta   80.48681641
_cell_angle_gamma   75.55632782
_symmetry_Int_Tables_number   1
_chemical_formula_structural   Al13Os4
_chemical_formula_sum   'Al13 Os4'
_cell_volume   259.30021111
_cell_formula_units_Z   1
loop_
 _symmetry_equiv_pos_site_id
 _symmetry_equiv_pos_as_xyz
  1  'x, y, z'
loop_
 _atom_site_type_symbol
 _atom_site_label
 _atom_site_symmetry_multiplicity
 _atom_site_fract_x
 _atom_site_fract_y
 _atom_site_fract_z
 _atom_site_occupancy
  Al  Al0  1  0.76328790  0.44468379  0.52674425  1
  Al  Al1  1  0.87695968  0.69066674  0.30144751  1
  Al  Al2  1  0.25820777  0.57543260  0.90075874  1
  Al  Al3  1  0.76756692  0.42171657  0.02570951  1
  Al  Al4  1  0.76944065  0.94330990  0.52817988  1
  Al  Al5  1  0.58334261  0.95042241  0.97082055  1
  Al  Al6  1  0.26571637  0.07757755  0.40144691  1
  Al  Al7  1  0.28512487  0.80989468  0.65858948  1
  Al  Al8  1  0.33274266  0.56174046  0.40469810  1
  Al  Al9  1  0.01476134  0.91914469  0.09736657  1
  Al  Al10  1  0.21000816  0.32573488  0.65309048  1
  Al  Al11  1  0.27941379  0.32286125  0.15892237  1
  Al  Al12  1  0.69040543  0.17536713  0.76144677  1
  Os  Os13  1  0.45441511  0.77290428  0.19047849  1
  Os  Os14  1  0.77027398  0.23402858  0.28963861  1
  Os  Os15  1  0.77748203  0.64910614  0.77263409  1
  Os  Os16  1  0.14622849  0.09171057  0.86890829  1
