# generated using pymatgen
data_Al3V
_symmetry_space_group_name_H-M   'P 1'
_cell_length_a   3.80837393
_cell_length_b   3.80471277
_cell_length_c   4.90995884
_cell_angle_alpha   113.15420532
_cell_angle_beta   113.15321350
_cell_angle_gamma   89.84666443
_symmetry_Int_Tables_number   1
_chemical_formula_structural   Al3V
_chemical_formula_sum   'Al3 V1'
_cell_volume   59.16565469
_cell_formula_units_Z   1
loop_
 _symmetry_equiv_pos_site_id
 _symmetry_equiv_pos_as_xyz
  1  'x, y, z'
loop_
 _atom_site_type_symbol
 _atom_site_label
 _atom_site_symmetry_multiplicity
 _atom_site_fract_x
 _atom_site_fract_y
 _atom_site_fract_z
 _atom_site_occupancy
  Al  Al0  1  0.65576762  0.65425330  0.41876328  1
  Al  Al1  1  0.90547365  0.40484703  0.91811192  1
  Al  Al2  1  0.40551710  0.90515023  0.91801101  1
  V  V3  1  0.15561193  0.15436608  0.41912958  1
