# generated using pymatgen
data_Al5C3N
_symmetry_space_group_name_H-M   'P 1'
_cell_length_a   3.40029788
_cell_length_b   3.40521836
_cell_length_c   20.14624023
_cell_angle_alpha   84.98518372
_cell_angle_beta   85.19223785
_cell_angle_gamma   61.48081207
_symmetry_Int_Tables_number   1
_chemical_formula_structural   Al5C3N
_chemical_formula_sum   'Al10 C6 N2'
_cell_volume   203.94236065
_cell_formula_units_Z   2
loop_
 _symmetry_equiv_pos_site_id
 _symmetry_equiv_pos_as_xyz
  1  'x, y, z'
loop_
 _atom_site_type_symbol
 _atom_site_label
 _atom_site_symmetry_multiplicity
 _atom_site_fract_x
 _atom_site_fract_y
 _atom_site_fract_z
 _atom_site_occupancy
  Al  Al0  1  0.98778147  0.39488232  0.26956695  1
  Al  Al1  1  0.48988628  0.89522362  0.76896566  1
  Al  Al2  1  0.68630749  0.09146298  0.17918977  1
  Al  Al3  1  0.28890663  0.69288421  0.36911276  1
  Al  Al4  1  0.12572525  0.52912521  0.86715537  1
  Al  Al5  1  0.22179180  0.62746167  0.57424802  1
  Al  Al6  1  0.75705910  0.16153564  0.96480256  1
  Al  Al7  1  0.05590722  0.46018985  0.07264520  1
  Al  Al8  1  0.59121841  0.99689138  0.46545380  1
  Al  Al9  1  0.85679305  0.25950789  0.66740167  1
  C  C10  1  0.25516069  0.65817410  0.47420076  1
  C  C11  1  0.71914512  0.12654291  0.07386948  1
  C  C12  1  0.09125596  0.49283502  0.96423912  1
  C  C13  1  0.80306780  0.20956364  0.83022344  1
  C  C14  1  0.53970098  0.94451201  0.61872387  1
  C  C15  1  0.95293850  0.35652912  0.38144031  1
  N  N16  1  0.02511511  0.43236709  0.16551311  1
  N  N17  1  0.82456392  0.23159163  0.76838458  1
