# generated using pymatgen
data_AlCu4
_symmetry_space_group_name_H-M   'P 1'
_cell_length_a   6.18922806
_cell_length_b   6.22683001
_cell_length_c   6.26246023
_cell_angle_alpha   90.12250519
_cell_angle_beta   89.66321564
_cell_angle_gamma   89.85023499
_symmetry_Int_Tables_number   1
_chemical_formula_structural   AlCu4
_chemical_formula_sum   'Al4 Cu16'
_cell_volume   241.34509833
_cell_formula_units_Z   4
loop_
 _symmetry_equiv_pos_site_id
 _symmetry_equiv_pos_as_xyz
  1  'x, y, z'
loop_
 _atom_site_type_symbol
 _atom_site_label
 _atom_site_symmetry_multiplicity
 _atom_site_fract_x
 _atom_site_fract_y
 _atom_site_fract_z
 _atom_site_occupancy
  Al  Al0  1  0.65967762  0.56386650  0.50528485  1
  Al  Al1  1  0.15952088  0.16428278  0.69411021  1
  Al  Al2  1  0.65957159  0.36268720  0.09429871  1
  Al  Al3  1  0.15925372  0.36411610  0.10716438  1
  Cu  Cu4  1  0.91008145  0.26135889  0.39392823  1
  Cu  Cu5  1  0.40934062  0.06079317  0.99601525  1
  Cu  Cu6  1  0.15843503  0.96233648  0.29855663  1
  Cu  Cu7  1  0.90935034  0.66388601  0.19667687  1
  Cu  Cu8  1  0.15962112  0.76216900  0.89605814  1
  Cu  Cu9  1  0.40869701  0.66395098  0.19671828  1
  Cu  Cu10  1  0.40861773  0.26194644  0.39443752  1
  Cu  Cu11  1  0.90918297  0.05993520  0.99616164  1
  Cu  Cu12  1  0.90934312  0.46176854  0.79878062  1
  Cu  Cu13  1  0.15937833  0.56017166  0.49792939  1
  Cu  Cu14  1  0.65876770  0.76238030  0.89574468  1
  Cu  Cu15  1  0.65851593  0.16257037  0.69674027  1
  Cu  Cu16  1  0.40927279  0.86196816  0.59555304  1
  Cu  Cu17  1  0.90862262  0.86277330  0.59580284  1
  Cu  Cu18  1  0.40944973  0.46140069  0.79932857  1
  Cu  Cu19  1  0.65917861  0.96182311  0.29824311  1
