# generated using pymatgen
data_AlInGaSb3
_symmetry_space_group_name_H-M   'P 1'
_cell_length_a   4.39790058
_cell_length_b   6.45491934
_cell_length_c   7.84276199
_cell_angle_alpha   114.00351715
_cell_angle_beta   106.32631683
_cell_angle_gamma   89.97884369
_symmetry_Int_Tables_number   1
_chemical_formula_structural   AlInGaSb3
_chemical_formula_sum   'Al1 In1 Ga1 Sb3'
_cell_volume   193.52907563
_cell_formula_units_Z   1
loop_
 _symmetry_equiv_pos_site_id
 _symmetry_equiv_pos_as_xyz
  1  'x, y, z'
loop_
 _atom_site_type_symbol
 _atom_site_label
 _atom_site_symmetry_multiplicity
 _atom_site_fract_x
 _atom_site_fract_y
 _atom_site_fract_z
 _atom_site_occupancy
  Al  Al0  1  0.32595485  0.35099787  0.08346710  1
  In  In1  1  0.99669915  0.01875256  0.42309231  1
  Ga  Ga2  1  0.66577852  0.68631560  0.75647497  1
  Sb  Sb3  1  0.49627927  0.75927883  0.42176041  1
  Sb  Sb4  1  0.16815606  0.44970146  0.77071494  1
  Sb  Sb5  1  0.82537514  0.10981638  0.08249633  1
