# generated using pymatgen
data_AlInSb2
_symmetry_space_group_name_H-M   'P 1'
_cell_length_a   4.58621073
_cell_length_b   4.54018784
_cell_length_c   6.41297770
_cell_angle_alpha   89.87635040
_cell_angle_beta   89.68813324
_cell_angle_gamma   90.11660767
_symmetry_Int_Tables_number   1
_chemical_formula_structural   AlInSb2
_chemical_formula_sum   'Al1 In1 Sb2'
_cell_volume   133.53010833
_cell_formula_units_Z   1
loop_
 _symmetry_equiv_pos_site_id
 _symmetry_equiv_pos_as_xyz
  1  'x, y, z'
loop_
 _atom_site_type_symbol
 _atom_site_label
 _atom_site_symmetry_multiplicity
 _atom_site_fract_x
 _atom_site_fract_y
 _atom_site_fract_z
 _atom_site_occupancy
  Al  Al0  1  0.30870864  0.95969909  0.57651287  1
  In  In1  1  0.80825138  0.45965225  0.07630378  1
  Sb  Sb2  1  0.80925685  0.95992589  0.80142283  1
  Sb  Sb3  1  0.30845594  0.46004683  0.34203056  1
