# generated using pymatgen
data_AlRe2
_symmetry_space_group_name_H-M   'P 1'
_cell_length_a   2.96649122
_cell_length_b   2.96806312
_cell_length_c   5.18860865
_cell_angle_alpha   106.32451630
_cell_angle_beta   107.12648773
_cell_angle_gamma   89.80432129
_symmetry_Int_Tables_number   1
_chemical_formula_structural   AlRe2
_chemical_formula_sum   'Al1 Re2'
_cell_volume   41.74130308
_cell_formula_units_Z   1
loop_
 _symmetry_equiv_pos_site_id
 _symmetry_equiv_pos_as_xyz
  1  'x, y, z'
loop_
 _atom_site_type_symbol
 _atom_site_label
 _atom_site_symmetry_multiplicity
 _atom_site_fract_x
 _atom_site_fract_y
 _atom_site_fract_z
 _atom_site_occupancy
  Al  Al0  1  0.73814052  0.80305630  0.75219625  1
  Re  Re1  1  0.40692139  0.47197282  0.08977108  1
  Re  Re2  1  0.07330622  0.13768776  0.42534128  1
