# generated using pymatgen
data_AlVFeCo
_symmetry_space_group_name_H-M   'P 1'
_cell_length_a   4.08186197
_cell_length_b   4.07967710
_cell_length_c   4.10059261
_cell_angle_alpha   60.07599258
_cell_angle_beta   60.15821457
_cell_angle_gamma   60.06919098
_symmetry_Int_Tables_number   1
_chemical_formula_structural   AlVFeCo
_chemical_formula_sum   'Al1 V1 Fe1 Co1'
_cell_volume   48.39596096
_cell_formula_units_Z   1
loop_
 _symmetry_equiv_pos_site_id
 _symmetry_equiv_pos_as_xyz
  1  'x, y, z'
loop_
 _atom_site_type_symbol
 _atom_site_label
 _atom_site_symmetry_multiplicity
 _atom_site_fract_x
 _atom_site_fract_y
 _atom_site_fract_z
 _atom_site_occupancy
  Al  Al0  1  0.94591707  0.11733169  0.63814521  1
  V  V1  1  0.44611323  0.61753547  0.13784908  1
  Fe  Fe2  1  0.69574881  0.86784685  0.38861930  1
  Co  Co3  1  0.19576599  0.36721709  0.88845617  1
