# generated using pymatgen
data_Ar
_symmetry_space_group_name_H-M   'P 1'
_cell_length_a   3.30188322
_cell_length_b   3.31430340
_cell_length_c   5.12856817
_cell_angle_alpha   89.80937958
_cell_angle_beta   90.47767639
_cell_angle_gamma   120.65438080
_symmetry_Int_Tables_number   1
_chemical_formula_structural   Ar
_chemical_formula_sum   Ar2
_cell_volume   48.27960754
_cell_formula_units_Z   2
loop_
 _symmetry_equiv_pos_site_id
 _symmetry_equiv_pos_as_xyz
  1  'x, y, z'
loop_
 _atom_site_type_symbol
 _atom_site_label
 _atom_site_symmetry_multiplicity
 _atom_site_fract_x
 _atom_site_fract_y
 _atom_site_fract_z
 _atom_site_occupancy
  Ar  Ar0  1  0.95705098  0.34612793  0.86763251  1
  Ar  Ar1  1  0.28938797  0.01194689  0.36756310  1
