# generated using pymatgen
data_AsRh
_symmetry_space_group_name_H-M   'P 1'
_cell_length_a   3.59957194
_cell_length_b   5.70442963
_cell_length_c   6.35813475
_cell_angle_alpha   90.09019470
_cell_angle_beta   89.89231873
_cell_angle_gamma   90.28089905
_symmetry_Int_Tables_number   1
_chemical_formula_structural   AsRh
_chemical_formula_sum   'As4 Rh4'
_cell_volume   130.55283114
_cell_formula_units_Z   4
loop_
 _symmetry_equiv_pos_site_id
 _symmetry_equiv_pos_as_xyz
  1  'x, y, z'
loop_
 _atom_site_type_symbol
 _atom_site_label
 _atom_site_symmetry_multiplicity
 _atom_site_fract_x
 _atom_site_fract_y
 _atom_site_fract_z
 _atom_site_occupancy
  As  As0  1  0.31955063  0.97389287  0.83944488  1
  As  As1  1  0.81925905  0.07569250  0.33923274  1
  As  As2  1  0.31949905  0.47564846  0.18930455  1
  As  As3  1  0.81944525  0.57498300  0.68832660  1
  Rh  Rh4  1  0.31909892  0.77694380  0.46779454  1
  Rh  Rh5  1  0.81907195  0.27375013  0.96788538  1
  Rh  Rh6  1  0.81885970  0.77301592  0.05923034  1
  Rh  Rh7  1  0.31902432  0.27717364  0.55971622  1
