# generated using pymatgen
data_AsRhO4
_symmetry_space_group_name_H-M   'P 1'
_cell_length_a   4.32575512
_cell_length_b   4.36869192
_cell_length_c   4.36030293
_cell_angle_alpha   89.49774170
_cell_angle_beta   89.04689789
_cell_angle_gamma   89.61178589
_symmetry_Int_Tables_number   1
_chemical_formula_structural   AsRhO4
_chemical_formula_sum   'As1 Rh1 O4'
_cell_volume   82.38415408
_cell_formula_units_Z   1
loop_
 _symmetry_equiv_pos_site_id
 _symmetry_equiv_pos_as_xyz
  1  'x, y, z'
loop_
 _atom_site_type_symbol
 _atom_site_label
 _atom_site_symmetry_multiplicity
 _atom_site_fract_x
 _atom_site_fract_y
 _atom_site_fract_z
 _atom_site_occupancy
  As  As0  1  0.27577782  0.86314470  0.40912163  1
  Rh  Rh1  1  0.77882463  0.36363849  0.90890318  1
  O  O2  1  0.04538802  0.09998307  0.17116721  1
  O  O3  1  0.51492059  0.63233209  0.17026412  1
  O  O4  1  0.04486835  0.63020486  0.64446354  1
  O  O5  1  0.51515257  0.10083371  0.64495409  1
