# generated using pymatgen
data_AsRh2
_symmetry_space_group_name_H-M   'P 1'
_cell_length_a   3.52830482
_cell_length_b   3.51002765
_cell_length_c   4.37997103
_cell_angle_alpha   89.70967865
_cell_angle_beta   90.00313568
_cell_angle_gamma   119.76874542
_symmetry_Int_Tables_number   1
_chemical_formula_structural   AsRh2
_chemical_formula_sum   'As1 Rh2'
_cell_volume   47.08455815
_cell_formula_units_Z   1
loop_
 _symmetry_equiv_pos_site_id
 _symmetry_equiv_pos_as_xyz
  1  'x, y, z'
loop_
 _atom_site_type_symbol
 _atom_site_label
 _atom_site_symmetry_multiplicity
 _atom_site_fract_x
 _atom_site_fract_y
 _atom_site_fract_z
 _atom_site_occupancy
  As  As0  1  0.97523433  0.40770593  0.73873305  1
  Rh  Rh1  1  0.64153379  0.74045986  0.43810120  1
  Rh  Rh2  1  0.30923489  0.07398360  0.03810720  1
