# generated using pymatgen
data_Ba(AgTe)2
_symmetry_space_group_name_H-M   'P 1'
_cell_length_a   4.78407288
_cell_length_b   9.94051933
_cell_length_c   13.85223293
_cell_angle_alpha   94.92253876
_cell_angle_beta   90.05224609
_cell_angle_gamma   104.46138000
_symmetry_Int_Tables_number   1
_chemical_formula_structural   Ba(AgTe)2
_chemical_formula_sum   'Ba4 Ag8 Te8'
_cell_volume   635.36393170
_cell_formula_units_Z   4
loop_
 _symmetry_equiv_pos_site_id
 _symmetry_equiv_pos_as_xyz
  1  'x, y, z'
loop_
 _atom_site_type_symbol
 _atom_site_label
 _atom_site_symmetry_multiplicity
 _atom_site_fract_x
 _atom_site_fract_y
 _atom_site_fract_z
 _atom_site_occupancy
  Ba  Ba0  1  0.69096184  0.50681788  0.95320785  1
  Ba  Ba1  1  0.48549047  0.09511344  0.31268990  1
  Ba  Ba2  1  0.43278444  0.98252636  0.79935765  1
  Ba  Ba3  1  0.27710235  0.67228961  0.47593614  1
  Ag  Ag4  1  0.70782161  0.53504753  0.25160286  1
  Ag  Ag5  1  0.11429340  0.34631988  0.16770031  1
  Ag  Ag6  1  0.92208016  0.96207780  0.54868680  1
  Ag  Ag7  1  0.22840264  0.58062792  0.74631262  1
  Ag  Ag8  1  0.86020404  0.83140945  0.15334560  1
  Ag  Ag9  1  0.03694598  0.18066391  0.97323823  1
  Ag  Ag10  1  0.07618384  0.26971543  0.56174952  1
  Ag  Ag11  1  0.63728881  0.38521644  0.67202646  1
  Te  Te12  1  0.11829644  0.36310631  0.36237556  1
  Te  Te13  1  0.88937026  0.88838339  0.95486784  1
  Te  Te14  1  0.49219248  0.09894418  0.56668371  1
  Te  Te15  1  0.25768283  0.62933135  0.12409893  1
  Te  Te16  1  0.55123556  0.20925316  0.08389696  1
  Te  Te17  1  0.85021287  0.82193154  0.34518644  1
  Te  Te18  1  0.79343557  0.70834768  0.66899842  1
  Te  Te19  1  0.09440110  0.31248775  0.79107845  1
