# generated using pymatgen
data_Ba(POs)2
_symmetry_space_group_name_H-M   'P 1'
_cell_length_a   4.03381872
_cell_length_b   4.02490234
_cell_length_c   6.83287525
_cell_angle_alpha   107.34467316
_cell_angle_beta   107.27056122
_cell_angle_gamma   90.12971497
_symmetry_Int_Tables_number   1
_chemical_formula_structural   Ba(POs)2
_chemical_formula_sum   'Ba1 P2 Os2'
_cell_volume   100.61528703
_cell_formula_units_Z   1
loop_
 _symmetry_equiv_pos_site_id
 _symmetry_equiv_pos_as_xyz
  1  'x, y, z'
loop_
 _atom_site_type_symbol
 _atom_site_label
 _atom_site_symmetry_multiplicity
 _atom_site_fract_x
 _atom_site_fract_y
 _atom_site_fract_z
 _atom_site_occupancy
  Ba  Ba0  1  0.77540004  0.23290817  0.47498327  1
  P  P1  1  0.42901009  0.88697571  0.78773397  1
  P  P2  1  0.12122471  0.57747132  0.16451837  1
  Os  Os3  1  0.52513057  0.48186904  0.97463143  1
  Os  Os4  1  0.02433561  0.98173076  0.97534651  1
