# generated using pymatgen
data_Ba(Sb3Os)4
_symmetry_space_group_name_H-M   'P 1'
_cell_length_a   8.31785202
_cell_length_b   8.30048561
_cell_length_c   8.32691002
_cell_angle_alpha   109.39363098
_cell_angle_beta   109.55023956
_cell_angle_gamma   109.38251495
_symmetry_Int_Tables_number   1
_chemical_formula_structural   Ba(Sb3Os)4
_chemical_formula_sum   'Ba1 Sb12 Os4'
_cell_volume   443.03975678
_cell_formula_units_Z   1
loop_
 _symmetry_equiv_pos_site_id
 _symmetry_equiv_pos_as_xyz
  1  'x, y, z'
loop_
 _atom_site_type_symbol
 _atom_site_label
 _atom_site_symmetry_multiplicity
 _atom_site_fract_x
 _atom_site_fract_y
 _atom_site_fract_z
 _atom_site_occupancy
  Ba  Ba0  1  0.20776688  0.08907417  0.06537203  1
  Sb  Sb1  1  0.70840836  0.93056798  0.72161430  1
  Sb  Sb2  1  0.02516819  0.24729396  0.72142959  1
  Sb  Sb3  1  0.04641387  0.43249434  0.24459845  1
  Sb  Sb4  1  0.04628697  0.74577594  0.56268489  1
  Sb  Sb5  1  0.38698214  0.93107069  0.40770286  1
  Sb  Sb6  1  0.86430603  0.90630108  0.22144423  1
  Sb  Sb7  1  0.70880592  0.24759273  0.40490717  1
  Sb  Sb8  1  0.37102389  0.74628615  0.87810147  1
  Sb  Sb9  1  0.54807323  0.27505919  0.90587687  1
  Sb  Sb10  1  0.54739749  0.58893019  0.22022843  1
  Sb  Sb11  1  0.37083220  0.43366763  0.56467122  1
  Sb  Sb12  1  0.86421078  0.58858043  0.90558571  1
  Os  Os13  1  0.20815550  0.08898168  0.56452715  1
  Os  Os14  1  0.70722067  0.58932108  0.56498027  1
  Os  Os15  1  0.70781052  0.08898355  0.06481374  1
  Os  Os16  1  0.20766205  0.58893234  0.06563359  1
