# generated using pymatgen
data_Ba2Cu3BrClO4
_symmetry_space_group_name_H-M   'P 1'
_cell_length_a   5.34937048
_cell_length_b   6.59408283
_cell_length_c   7.48678684
_cell_angle_alpha   107.66562653
_cell_angle_beta   109.98297882
_cell_angle_gamma   90.19830322
_symmetry_Int_Tables_number   1
_chemical_formula_structural   Ba2Cu3BrClO4
_chemical_formula_sum   'Ba2 Cu3 Br1 Cl1 O4'
_cell_volume   234.78723063
_cell_formula_units_Z   1
loop_
 _symmetry_equiv_pos_site_id
 _symmetry_equiv_pos_as_xyz
  1  'x, y, z'
loop_
 _atom_site_type_symbol
 _atom_site_label
 _atom_site_symmetry_multiplicity
 _atom_site_fract_x
 _atom_site_fract_y
 _atom_site_fract_z
 _atom_site_occupancy
  Ba  Ba0  1  0.90706533  0.33774137  0.66115087  1
  Ba  Ba1  1  0.34540689  0.80183548  0.53642279  1
  Cu  Cu2  1  0.56389779  0.98710626  0.96811187  1
  Cu  Cu3  1  0.56358337  0.53639543  0.96507418  1
  Cu  Cu4  1  0.03611949  0.91507316  0.91401535  1
  Br  Br5  1  0.24427527  0.17528072  0.31692991  1
  Cl  Cl6  1  0.74027109  0.58394289  0.31746191  1
  O  O7  1  0.92916524  0.98862928  0.69390196  1
  O  O8  1  0.73521024  0.72233075  0.87177193  1
  O  O9  1  0.29464039  0.72235799  0.87207603  1
  O  O10  1  0.51019520  0.22371848  0.83373880  1
