# generated using pymatgen
data_Ba2Cu(PO4)2
_symmetry_space_group_name_H-M   'P 1'
_cell_length_a   5.22234488
_cell_length_b   5.53873348
_cell_length_c   8.48312092
_cell_angle_alpha   100.89647675
_cell_angle_beta   94.19506836
_cell_angle_gamma   114.73443604
_symmetry_Int_Tables_number   1
_chemical_formula_structural   Ba2Cu(PO4)2
_chemical_formula_sum   'Ba2 Cu1 P2 O8'
_cell_volume   215.63394221
_cell_formula_units_Z   1
loop_
 _symmetry_equiv_pos_site_id
 _symmetry_equiv_pos_as_xyz
  1  'x, y, z'
loop_
 _atom_site_type_symbol
 _atom_site_label
 _atom_site_symmetry_multiplicity
 _atom_site_fract_x
 _atom_site_fract_y
 _atom_site_fract_z
 _atom_site_occupancy
  Ba  Ba0  1  0.20963337  0.44008306  0.30390182  1
  Ba  Ba1  1  0.88205791  0.62221783  0.87939703  1
  Cu  Cu2  1  0.54168230  0.10234962  0.52971298  1
  P  P3  1  0.61568445  0.01084177  0.16019617  1
  P  P4  1  0.16930279  0.17322814  0.67798364  1
  O  O5  1  0.52394801  0.14329314  0.31339154  1
  O  O6  1  0.90878451  0.20333581  0.59096307  1
  O  O7  1  0.17397439  0.19390300  0.86052293  1
  O  O8  1  0.34791413  0.78037089  0.06854239  1
  O  O9  1  0.83447140  0.90198398  0.19929944  1
  O  O10  1  0.21138187  0.89234936  0.59084183  1
  O  O11  1  0.43951854  0.37925553  0.64489365  1
  O  O12  1  0.75701034  0.26648360  0.08308955  1
