# generated using pymatgen
data_Ba2FeReO6
_symmetry_space_group_name_H-M   'P 1'
_cell_length_a   5.71635437
_cell_length_b   5.86146450
_cell_length_c   5.79473639
_cell_angle_alpha   60.53411865
_cell_angle_beta   89.66157532
_cell_angle_gamma   120.30760193
_symmetry_Int_Tables_number   1
_chemical_formula_structural   Ba2FeReO6
_chemical_formula_sum   'Ba2 Fe1 Re1 O6'
_cell_volume   137.34626134
_cell_formula_units_Z   1
loop_
 _symmetry_equiv_pos_site_id
 _symmetry_equiv_pos_as_xyz
  1  'x, y, z'
loop_
 _atom_site_type_symbol
 _atom_site_label
 _atom_site_symmetry_multiplicity
 _atom_site_fract_x
 _atom_site_fract_y
 _atom_site_fract_z
 _atom_site_occupancy
  Ba  Ba0  1  0.66125888  0.27862951  0.00161469  1
  Ba  Ba1  1  0.16100074  0.27968729  0.50220603  1
  Fe  Fe2  1  0.90959275  0.77808738  0.25191745  1
  Re  Re3  1  0.41046837  0.77855927  0.75284892  1
  O  O4  1  0.67216933  0.77862847  0.97350001  1
  O  O5  1  0.14430360  0.77769738  0.52862394  1
  O  O6  1  0.64400256  0.24185032  0.52475244  1
  O  O7  1  0.62989676  0.77851969  0.48579681  1
  O  O8  1  0.18374088  0.77858913  0.00971641  1
  O  O9  1  0.18156348  0.32095847  0.98443651  1
