# generated using pymatgen
data_Ba2GaGeN
_symmetry_space_group_name_H-M   'P 1'
_cell_length_a   4.48681450
_cell_length_b   6.97517776
_cell_length_c   9.35312843
_cell_angle_alpha   98.62152863
_cell_angle_beta   103.19408417
_cell_angle_gamma   89.99748230
_symmetry_Int_Tables_number   1
_chemical_formula_structural   Ba2GaGeN
_chemical_formula_sum   'Ba4 Ga2 Ge2 N2'
_cell_volume   281.59355979
_cell_formula_units_Z   2
loop_
 _symmetry_equiv_pos_site_id
 _symmetry_equiv_pos_as_xyz
  1  'x, y, z'
loop_
 _atom_site_type_symbol
 _atom_site_label
 _atom_site_symmetry_multiplicity
 _atom_site_fract_x
 _atom_site_fract_y
 _atom_site_fract_z
 _atom_site_occupancy
  Ba  Ba0  1  0.61773580  0.43617353  0.90423942  1
  Ba  Ba1  1  0.27874658  0.65211135  0.23253322  1
  Ba  Ba2  1  0.76768023  0.11867744  0.20724200  1
  Ba  Ba3  1  0.48072436  0.87024701  0.63719577  1
  Ga  Ga4  1  0.97860289  0.23062687  0.63153678  1
  Ga  Ga5  1  0.40329283  0.30630764  0.49066192  1
  Ge  Ge6  1  0.11785518  0.07200413  0.90617698  1
  Ge  Ge7  1  0.90391034  0.53155392  0.49225289  1
  N  N8  1  0.19773635  0.31767893  0.06769849  1
  N  N9  1  0.35412645  0.02896025  0.37027434  1
