# generated using pymatgen
data_Ba2SmCoCu2O7
_symmetry_space_group_name_H-M   'P 1'
_cell_length_a   4.14821339
_cell_length_b   4.12992334
_cell_length_c   12.34272194
_cell_angle_alpha   99.60517120
_cell_angle_beta   99.51349640
_cell_angle_gamma   90.15070343
_symmetry_Int_Tables_number   1
_chemical_formula_structural   Ba2SmCoCu2O7
_chemical_formula_sum   'Ba2 Sm1 Co1 Cu2 O7'
_cell_volume   205.52206954
_cell_formula_units_Z   1
loop_
 _symmetry_equiv_pos_site_id
 _symmetry_equiv_pos_as_xyz
  1  'x, y, z'
loop_
 _atom_site_type_symbol
 _atom_site_label
 _atom_site_symmetry_multiplicity
 _atom_site_fract_x
 _atom_site_fract_y
 _atom_site_fract_z
 _atom_site_occupancy
  Ba  Ba0  1  0.22972341  0.92059648  0.32284862  1
  Ba  Ba1  1  0.99574167  0.18288222  0.84877062  1
  Sm  Sm2  1  0.40156725  0.58985865  0.66192406  1
  Co  Co3  1  0.58867800  0.77634412  0.03472653  1
  Cu  Cu4  1  0.79300642  0.48248014  0.44458303  1
  Cu  Cu5  1  0.12702256  0.31491309  0.10968164  1
  O  O6  1  0.30295950  0.49653709  0.46781409  1
  O  O7  1  0.51262474  0.70031714  0.88148457  1
  O  O8  1  0.91325444  0.60163641  0.68432570  1
  O  O9  1  0.60410225  0.29156625  0.06075611  1
  O  O10  1  0.41471976  0.10134342  0.68590617  1
  O  O11  1  0.11477471  0.80230528  0.08882307  1
  O  O12  1  0.71988040  0.40710261  0.30402756  1
