# generated using pymatgen
data_Ba2UPbO6
_symmetry_space_group_name_H-M   'P 1'
_cell_length_a   6.36806297
_cell_length_b   6.36729956
_cell_length_c   6.36703682
_cell_angle_alpha   59.94555283
_cell_angle_beta   59.83519363
_cell_angle_gamma   59.85454941
_symmetry_Int_Tables_number   1
_chemical_formula_structural   Ba2UPbO6
_chemical_formula_sum   'Ba2 U1 Pb1 O6'
_cell_volume   182.04739973
_cell_formula_units_Z   1
loop_
 _symmetry_equiv_pos_site_id
 _symmetry_equiv_pos_as_xyz
  1  'x, y, z'
loop_
 _atom_site_type_symbol
 _atom_site_label
 _atom_site_symmetry_multiplicity
 _atom_site_fract_x
 _atom_site_fract_y
 _atom_site_fract_z
 _atom_site_occupancy
  Ba  Ba0  1  0.72559071  0.83850259  0.04679468  1
  Ba  Ba1  1  0.22495891  0.33978498  0.54661983  1
  U  U2  1  0.47597244  0.58969134  0.79667914  1
  Pb  Pb3  1  0.97537273  0.09073158  0.29650041  1
  O  O4  1  0.24143469  0.82441521  0.56114995  1
  O  O5  1  0.24126051  0.35652941  0.03075884  1
  O  O6  1  0.70969760  0.82473844  0.56170154  1
  O  O7  1  0.24134637  0.82461190  0.03020802  1
  O  O8  1  0.70873576  0.35674390  0.56175017  1
  O  O9  1  0.70883876  0.35632458  0.03084936  1
