# generated using pymatgen
data_Ba2UCuO6
_symmetry_space_group_name_H-M   'P 1'
_cell_length_a   5.90105677
_cell_length_b   6.21419716
_cell_length_c   5.89682484
_cell_angle_alpha   119.71865082
_cell_angle_beta   90.04896545
_cell_angle_gamma   118.59864044
_symmetry_Int_Tables_number   1
_chemical_formula_structural   Ba2UCuO6
_chemical_formula_sum   'Ba2 U1 Cu1 O6'
_cell_volume   156.63613971
_cell_formula_units_Z   1
loop_
 _symmetry_equiv_pos_site_id
 _symmetry_equiv_pos_as_xyz
  1  'x, y, z'
loop_
 _atom_site_type_symbol
 _atom_site_label
 _atom_site_symmetry_multiplicity
 _atom_site_fract_x
 _atom_site_fract_y
 _atom_site_fract_z
 _atom_site_occupancy
  Ba  Ba0  1  0.63738972  0.14658713  0.82332700  1
  Ba  Ba1  1  0.13609688  0.14620812  0.32471400  1
  U  U2  1  0.38676479  0.64623618  0.07300453  1
  Cu  Cu3  1  0.88634342  0.64683515  0.57284087  1
  O  O4  1  0.10010895  0.64586055  0.86029178  1
  O  O5  1  0.67705274  0.64555717  0.28834170  1
  O  O6  1  0.61806899  0.09138869  0.29693463  1
  O  O7  1  0.15688041  0.20026699  0.85662508  1
  O  O8  1  0.17346877  0.64640284  0.36339563  1
  O  O9  1  0.60449189  0.64589143  0.78261060  1
