# generated using pymatgen
data_Ba2YTaO6
_symmetry_space_group_name_H-M   'P 1'
_cell_length_a   6.06542063
_cell_length_b   6.06625462
_cell_length_c   6.05566692
_cell_angle_alpha   59.85744476
_cell_angle_beta   59.90172195
_cell_angle_gamma   59.89511108
_symmetry_Int_Tables_number   1
_chemical_formula_structural   Ba2YTaO6
_chemical_formula_sum   'Ba2 Y1 Ta1 O6'
_cell_volume   157.14166830
_cell_formula_units_Z   1
loop_
 _symmetry_equiv_pos_site_id
 _symmetry_equiv_pos_as_xyz
  1  'x, y, z'
loop_
 _atom_site_type_symbol
 _atom_site_label
 _atom_site_symmetry_multiplicity
 _atom_site_fract_x
 _atom_site_fract_y
 _atom_site_fract_z
 _atom_site_occupancy
  Ba  Ba0  1  0.35138804  0.64023340  0.25059754  1
  Ba  Ba1  1  0.85141647  0.14025287  0.75017238  1
  Y  Y2  1  0.10091753  0.39050591  0.00104272  1
  Ta  Ta3  1  0.60101330  0.89061564  0.50067097  1
  O  O4  1  0.36565611  0.12622252  0.73582494  1
  O  O5  1  0.83650124  0.65605694  0.73599136  1
  O  O6  1  0.83687812  0.65543914  0.26380315  1
  O  O7  1  0.36538050  0.12654693  0.26398727  1
  O  O8  1  0.83710080  0.12613237  0.26437980  1
  O  O9  1  0.36607391  0.65539283  0.73570591  1
