# generated using pymatgen
data_Ba3PuO6
_symmetry_space_group_name_H-M   'P 1'
_cell_length_a   6.28308058
_cell_length_b   6.29061556
_cell_length_c   6.26646709
_cell_angle_alpha   61.83594894
_cell_angle_beta   62.01440048
_cell_angle_gamma   61.96318817
_symmetry_Int_Tables_number   1
_chemical_formula_structural   Ba3PuO6
_chemical_formula_sum   'Ba3 Pu1 O6'
_cell_volume   182.72898597
_cell_formula_units_Z   1
loop_
 _symmetry_equiv_pos_site_id
 _symmetry_equiv_pos_as_xyz
  1  'x, y, z'
loop_
 _atom_site_type_symbol
 _atom_site_label
 _atom_site_symmetry_multiplicity
 _atom_site_fract_x
 _atom_site_fract_y
 _atom_site_fract_z
 _atom_site_occupancy
  Ba  Ba0  1  0.45716903  0.20333709  0.09635746  1
  Ba  Ba1  1  0.70839965  0.45880792  0.35801697  1
  Ba  Ba2  1  0.20174389  0.93713313  0.83705151  1
  Pu  Pu3  1  0.95764023  0.70230788  0.59581035  1
  O  O4  1  0.16387212  0.56367183  0.29390010  1
  O  O5  1  0.09834152  0.00284493  0.39974830  1
  O  O6  1  0.25579131  0.49289632  0.73534155  1
  O  O7  1  0.64647108  0.92689103  0.46893942  1
  O  O8  1  0.81758583  0.39779192  0.79431194  1
  O  O9  1  0.75512868  0.83424449  0.91395748  1
