# generated using pymatgen
data_Ba3SrLu2(BiO6)2
_symmetry_space_group_name_H-M   'P 1'
_cell_length_a   6.09556437
_cell_length_b   6.15978050
_cell_length_c   8.53138542
_cell_angle_alpha   89.96800995
_cell_angle_beta   89.88983917
_cell_angle_gamma   89.99613190
_symmetry_Int_Tables_number   1
_chemical_formula_structural   Ba3SrLu2(BiO6)2
_chemical_formula_sum   'Ba3 Sr1 Lu2 Bi2 O12'
_cell_volume   320.33017384
_cell_formula_units_Z   1
loop_
 _symmetry_equiv_pos_site_id
 _symmetry_equiv_pos_as_xyz
  1  'x, y, z'
loop_
 _atom_site_type_symbol
 _atom_site_label
 _atom_site_symmetry_multiplicity
 _atom_site_fract_x
 _atom_site_fract_y
 _atom_site_fract_z
 _atom_site_occupancy
  Ba  Ba0  1  0.60563207  0.63710761  0.80255038  1
  Ba  Ba1  1  0.11547350  0.13746727  0.80272084  1
  Ba  Ba2  1  0.61400712  0.58985972  0.30358845  1
  Sr  Sr3  1  0.10594434  0.08156750  0.30291474  1
  Lu  Lu4  1  0.61044711  0.11212133  0.55221272  1
  Lu  Lu5  1  0.11030152  0.61122131  0.05326824  1
  Bi  Bi6  1  0.61045712  0.11204086  0.05611482  1
  Bi  Bi7  1  0.11013905  0.61225969  0.55356473  1
  O  O8  1  0.33593720  0.89539748  0.02074356  1
  O  O9  1  0.32880056  0.89037502  0.58354491  1
  O  O10  1  0.89619762  0.33154154  0.51271695  1
  O  O11  1  0.16709679  0.64171857  0.30414566  1
  O  O12  1  0.05166094  0.60151583  0.80074066  1
  O  O13  1  0.38820508  0.39580268  0.58398384  1
  O  O14  1  0.39405534  0.38888025  0.02029127  1
  O  O15  1  0.88854635  0.32603467  0.09287545  1
  O  O16  1  0.83002138  0.83979964  0.08392258  1
  O  O17  1  0.83525509  0.83324760  0.52023274  1
  O  O18  1  0.66787249  0.10205021  0.80421388  1
  O  O19  1  0.53040165  0.12370981  0.29928145  1
