# generated using pymatgen
data_Ba4Nb2O9
_symmetry_space_group_name_H-M   'P 1'
_cell_length_a   5.86577654
_cell_length_b   5.89424419
_cell_length_c   8.91303158
_cell_angle_alpha   90.21077728
_cell_angle_beta   89.95234680
_cell_angle_gamma   119.60945129
_symmetry_Int_Tables_number   1
_chemical_formula_structural   Ba4Nb2O9
_chemical_formula_sum   'Ba4 Nb2 O9'
_cell_volume   267.91819879
_cell_formula_units_Z   1
loop_
 _symmetry_equiv_pos_site_id
 _symmetry_equiv_pos_as_xyz
  1  'x, y, z'
loop_
 _atom_site_type_symbol
 _atom_site_label
 _atom_site_symmetry_multiplicity
 _atom_site_fract_x
 _atom_site_fract_y
 _atom_site_fract_z
 _atom_site_occupancy
  Ba  Ba0  1  0.26789373  0.19152986  0.81434786  1
  Ba  Ba1  1  0.26808015  0.19409117  0.31314966  1
  Ba  Ba2  1  0.93854135  0.51948947  0.58281374  1
  Ba  Ba3  1  0.93536574  0.52012581  0.08016970  1
  Nb  Nb4  1  0.60128123  0.85439402  0.43964010  1
  Nb  Nb5  1  0.60800064  0.85175711  0.94237894  1
  O  O6  1  0.45548368  0.53925836  0.55037820  1
  O  O7  1  0.74207866  0.17148173  0.83721358  1
  O  O8  1  0.45296252  0.53847927  0.08032217  1
  O  O9  1  0.92256629  0.00968290  0.08175955  1
  O  O10  1  0.27890471  0.71307069  0.33850864  1
  O  O11  1  0.73675597  0.17736857  0.33827850  1
  O  O12  1  0.92595446  0.00635545  0.54680532  1
  O  O13  1  0.77357608  0.69919050  0.83682090  1
  O  O14  1  0.28860143  0.71235985  0.83700454  1
