# generated using pymatgen
data_BaCu4S3
_symmetry_space_group_name_H-M   'P 1'
_cell_length_a   4.07292557
_cell_length_b   8.06825924
_cell_length_c   8.90760422
_cell_angle_alpha   99.28392029
_cell_angle_beta   89.96071625
_cell_angle_gamma   90.04328918
_symmetry_Int_Tables_number   1
_chemical_formula_structural   BaCu4S3
_chemical_formula_sum   'Ba2 Cu8 S6'
_cell_volume   288.88210325
_cell_formula_units_Z   2
loop_
 _symmetry_equiv_pos_site_id
 _symmetry_equiv_pos_as_xyz
  1  'x, y, z'
loop_
 _atom_site_type_symbol
 _atom_site_label
 _atom_site_symmetry_multiplicity
 _atom_site_fract_x
 _atom_site_fract_y
 _atom_site_fract_z
 _atom_site_occupancy
  Ba  Ba0  1  0.02472899  0.81829518  0.79729056  1
  Ba  Ba1  1  0.52451903  0.54930788  0.14906909  1
  Cu  Cu2  1  0.52395880  0.40940452  0.73844564  1
  Cu  Cu3  1  0.02425345  0.23396981  0.58124268  1
  Cu  Cu4  1  0.52412993  0.83891946  0.46915451  1
  Cu  Cu5  1  0.02398427  0.96747172  0.21010311  1
  Cu  Cu6  1  0.02400226  0.56081909  0.46706873  1
  Cu  Cu7  1  0.02434038  0.20247005  0.05913580  1
  Cu  Cu8  1  0.52385563  0.15925033  0.88003176  1
  Cu  Cu9  1  0.52421403  0.15877081  0.34986487  1
  S  S10  1  0.02392010  0.29657418  0.31490794  1
  S  S11  1  0.02360707  0.39055848  0.88577491  1
  S  S12  1  0.02410527  0.78705257  0.34428483  1
  S  S13  1  0.52363449  0.99525040  0.05842969  1
  S  S14  1  0.52393341  0.60149157  0.59462637  1
  S  S15  1  0.52415538  0.09989783  0.62461078  1
