# generated using pymatgen
data_BaHg2Pb
_symmetry_space_group_name_H-M   'P 1'
_cell_length_a   5.65966749
_cell_length_b   5.65956354
_cell_length_c   5.65409946
_cell_angle_alpha   59.80344009
_cell_angle_beta   59.97321320
_cell_angle_gamma   60.02648926
_symmetry_Int_Tables_number   1
_chemical_formula_structural   BaHg2Pb
_chemical_formula_sum   'Ba1 Hg2 Pb1'
_cell_volume   127.87093493
_cell_formula_units_Z   1
loop_
 _symmetry_equiv_pos_site_id
 _symmetry_equiv_pos_as_xyz
  1  'x, y, z'
loop_
 _atom_site_type_symbol
 _atom_site_label
 _atom_site_symmetry_multiplicity
 _atom_site_fract_x
 _atom_site_fract_y
 _atom_site_fract_z
 _atom_site_occupancy
  Ba  Ba0  1  0.05754402  0.08578213  0.85380989  1
  Hg  Hg1  1  0.30724111  0.33544376  0.10354456  1
  Hg  Hg2  1  0.80743057  0.83560294  0.60380912  1
  Pb  Pb3  1  0.55821109  0.58571118  0.35342243  1
