# generated using pymatgen
data_BaNb2O6
_symmetry_space_group_name_H-M   'P 1'
_cell_length_a   3.82017207
_cell_length_b   6.05327368
_cell_length_c   12.07308292
_cell_angle_alpha   91.37421417
_cell_angle_beta   89.82818604
_cell_angle_gamma   90.11753082
_symmetry_Int_Tables_number   1
_chemical_formula_structural   BaNb2O6
_chemical_formula_sum   'Ba2 Nb4 O12'
_cell_volume   279.10247418
_cell_formula_units_Z   2
loop_
 _symmetry_equiv_pos_site_id
 _symmetry_equiv_pos_as_xyz
  1  'x, y, z'
loop_
 _atom_site_type_symbol
 _atom_site_label
 _atom_site_symmetry_multiplicity
 _atom_site_fract_x
 _atom_site_fract_y
 _atom_site_fract_z
 _atom_site_occupancy
  Ba  Ba0  1  0.87869537  0.87943006  0.03571315  1
  Ba  Ba1  1  0.87785488  0.37918591  0.55386102  1
  Nb  Nb2  1  0.37846527  0.84874374  0.70407754  1
  Nb  Nb3  1  0.37797830  0.85755241  0.40713578  1
  Nb  Nb4  1  0.37729123  0.37388238  0.89273757  1
  Nb  Nb5  1  0.37824011  0.35133567  0.20351966  1
  O  O6  1  0.37733030  0.69336891  0.53161764  1
  O  O7  1  0.37759599  0.49272197  0.71990544  1
  O  O8  1  0.37782782  0.07002243  0.54337484  1
  O  O9  1  0.37732741  0.18555722  0.04003218  1
  O  O10  1  0.87746149  0.39126328  0.91523778  1
  O  O11  1  0.87735093  0.30851784  0.19990699  1
  O  O12  1  0.37721470  0.57276642  0.32598865  1
  O  O13  1  0.87780517  0.82520187  0.69264668  1
  O  O14  1  0.37768197  0.10849272  0.79834366  1
  O  O15  1  0.37765703  0.07216029  0.29971161  1
  O  O16  1  0.37761396  0.58589333  0.10152203  1
  O  O17  1  0.37713188  0.73382235  0.88754243  1
