# generated using pymatgen
data_BaO
_symmetry_space_group_name_H-M   'P 1'
_cell_length_a   4.02175236
_cell_length_b   4.00220585
_cell_length_c   4.00692654
_cell_angle_alpha   59.74180222
_cell_angle_beta   59.48194885
_cell_angle_gamma   59.55897522
_symmetry_Int_Tables_number   1
_chemical_formula_structural   BaO
_chemical_formula_sum   'Ba1 O1'
_cell_volume   45.18376204
_cell_formula_units_Z   1
loop_
 _symmetry_equiv_pos_site_id
 _symmetry_equiv_pos_as_xyz
  1  'x, y, z'
loop_
 _atom_site_type_symbol
 _atom_site_label
 _atom_site_symmetry_multiplicity
 _atom_site_fract_x
 _atom_site_fract_y
 _atom_site_fract_z
 _atom_site_occupancy
  Ba  Ba0  1  0.50941938  0.01156449  0.29626173  1
  O  O1  1  0.00934076  0.51070637  0.79642695  1
