# generated using pymatgen
data_BaSr3O4
_symmetry_space_group_name_H-M   'P 1'
_cell_length_a   3.76887083
_cell_length_b   6.54260445
_cell_length_c   6.53962708
_cell_angle_alpha   109.77227020
_cell_angle_beta   89.95207977
_cell_angle_gamma   90.16077423
_symmetry_Int_Tables_number   1
_chemical_formula_structural   BaSr3O4
_chemical_formula_sum   'Ba1 Sr3 O4'
_cell_volume   151.74814640
_cell_formula_units_Z   1
loop_
 _symmetry_equiv_pos_site_id
 _symmetry_equiv_pos_as_xyz
  1  'x, y, z'
loop_
 _atom_site_type_symbol
 _atom_site_label
 _atom_site_symmetry_multiplicity
 _atom_site_fract_x
 _atom_site_fract_y
 _atom_site_fract_z
 _atom_site_occupancy
  Ba  Ba0  1  0.91958189  0.08528134  0.13393825  1
  Sr  Sr1  1  0.41961524  0.58532166  0.13403904  1
  Sr  Sr2  1  0.41963217  0.08508693  0.63365483  1
  Sr  Sr3  1  0.91957819  0.58416456  0.63410169  1
  O  O4  1  0.91986078  0.33999717  0.88005579  1
  O  O5  1  0.41967377  0.83036959  0.87998617  1
  O  O6  1  0.91974461  0.83387339  0.39126131  1
  O  O7  1  0.41975093  0.33905813  0.39278656  1
