# generated using pymatgen
data_BaTi(BO3)2
_symmetry_space_group_name_H-M   'P 1'
_cell_length_a   5.01828671
_cell_length_b   4.99414968
_cell_length_c   6.55228090
_cell_angle_alpha   67.37523651
_cell_angle_beta   67.42394257
_cell_angle_gamma   59.47238159
_symmetry_Int_Tables_number   1
_chemical_formula_structural   BaTi(BO3)2
_chemical_formula_sum   'Ba1 Ti1 B2 O6'
_cell_volume   126.84319451
_cell_formula_units_Z   1
loop_
 _symmetry_equiv_pos_site_id
 _symmetry_equiv_pos_as_xyz
  1  'x, y, z'
loop_
 _atom_site_type_symbol
 _atom_site_label
 _atom_site_symmetry_multiplicity
 _atom_site_fract_x
 _atom_site_fract_y
 _atom_site_fract_z
 _atom_site_occupancy
  Ba  Ba0  1  0.51731169  0.33991545  0.49760675  1
  Ti  Ti1  1  0.01553531  0.84097964  0.99715632  1
  B  B2  1  0.28553024  0.11104371  0.19228546  1
  B  B3  1  0.74914199  0.56890810  0.80755651  1
  O  O4  1  0.99058682  0.26096669  0.80064350  1
  O  O5  1  0.82602549  0.81443727  0.79871845  1
  O  O6  1  0.58732408  0.04095579  0.19723591  1
  O  O7  1  0.44667906  0.64027560  0.80140692  1
  O  O8  1  0.21710399  0.86618024  0.19560176  1
  O  O9  1  0.04222181  0.41717243  0.19603227  1
