# generated using pymatgen
data_BaTiO3
_symmetry_space_group_name_H-M   'P 1'
_cell_length_a   3.99745011
_cell_length_b   3.98674226
_cell_length_c   3.99900150
_cell_angle_alpha   89.49229431
_cell_angle_beta   89.69631195
_cell_angle_gamma   89.98333740
_symmetry_Int_Tables_number   1
_chemical_formula_structural   BaTiO3
_chemical_formula_sum   'Ba1 Ti1 O3'
_cell_volume   63.72790116
_cell_formula_units_Z   1
loop_
 _symmetry_equiv_pos_site_id
 _symmetry_equiv_pos_as_xyz
  1  'x, y, z'
loop_
 _atom_site_type_symbol
 _atom_site_label
 _atom_site_symmetry_multiplicity
 _atom_site_fract_x
 _atom_site_fract_y
 _atom_site_fract_z
 _atom_site_occupancy
  Ba  Ba0  1  0.27955562  0.70182496  0.97747570  1
  Ti  Ti1  1  0.77896470  0.20168017  0.47685081  1
  O  O2  1  0.77887601  0.70209998  0.47648314  1
  O  O3  1  0.27887762  0.20159245  0.47853887  1
  O  O4  1  0.77871948  0.20149426  0.97724843  1
