# generated using pymatgen
data_BaUTe4
_symmetry_space_group_name_H-M   'P 1'
_cell_length_a   8.09083271
_cell_length_b   8.78482246
_cell_length_c   8.03560352
_cell_angle_alpha   64.04736328
_cell_angle_beta   90.11414337
_cell_angle_gamma   117.07817841
_symmetry_Int_Tables_number   1
_chemical_formula_structural   BaUTe4
_chemical_formula_sum   'Ba2 U2 Te8'
_cell_volume   443.16380800
_cell_formula_units_Z   2
loop_
 _symmetry_equiv_pos_site_id
 _symmetry_equiv_pos_as_xyz
  1  'x, y, z'
loop_
 _atom_site_type_symbol
 _atom_site_label
 _atom_site_symmetry_multiplicity
 _atom_site_fract_x
 _atom_site_fract_y
 _atom_site_fract_z
 _atom_site_occupancy
  Ba  Ba0  1  0.30969134  0.97246754  0.08149957  1
  Ba  Ba1  1  0.05981299  0.47341496  0.83405435  1
  U  U2  1  0.55970705  0.47171560  0.33356228  1
  U  U3  1  0.81090009  0.97198182  0.58162278  1
  Te  Te4  1  0.46650341  0.71602941  0.95845282  1
  Te  Te5  1  0.69202161  0.21935621  0.67461997  1
  Te  Te6  1  0.46643338  0.71945572  0.45742878  1
  Te  Te7  1  0.86032414  0.71952909  0.95963794  1
  Te  Te8  1  0.91689819  0.71543866  0.45860699  1
  Te  Te9  1  0.69263023  0.21772289  0.22873636  1
  Te  Te10  1  0.19295946  0.21521521  0.67581433  1
  Te  Te11  1  0.19208086  0.22317472  0.22927810  1
