# generated using pymatgen
data_BaYMn2O5
_symmetry_space_group_name_H-M   'P 1'
_cell_length_a   5.75741625
_cell_length_b   5.84287834
_cell_length_c   8.78721523
_cell_angle_alpha   108.80577087
_cell_angle_beta   108.27597809
_cell_angle_gamma   93.09098816
_symmetry_Int_Tables_number   1
_chemical_formula_structural   BaYMn2O5
_chemical_formula_sum   'Ba2 Y2 Mn4 O10'
_cell_volume   261.72490220
_cell_formula_units_Z   2
loop_
 _symmetry_equiv_pos_site_id
 _symmetry_equiv_pos_as_xyz
  1  'x, y, z'
loop_
 _atom_site_type_symbol
 _atom_site_label
 _atom_site_symmetry_multiplicity
 _atom_site_fract_x
 _atom_site_fract_y
 _atom_site_fract_z
 _atom_site_occupancy
  Ba  Ba0  1  0.58832550  0.53550857  0.14439350  1
  Ba  Ba1  1  0.33185348  0.26445127  0.63053060  1
  Y  Y2  1  0.09686054  0.00939404  0.12661324  1
  Y  Y3  1  0.85467273  0.81311309  0.69848406  1
  Mn  Mn4  1  0.46582252  0.89819014  0.89331865  1
  Mn  Mn5  1  0.20949858  0.65065378  0.39614165  1
  Mn  Mn6  1  0.71079332  0.16507503  0.39458343  1
  Mn  Mn7  1  0.95936424  0.38417998  0.88176429  1
  O  O8  1  0.92554748  0.52577531  0.47072592  1
  O  O9  1  0.20932785  0.68149793  0.90567315  1
  O  O10  1  0.41562679  0.78176469  0.64324790  1
  O  O11  1  0.82338244  0.18067414  0.64359379  1
  O  O12  1  0.35900638  0.33578202  0.32277831  1
  O  O13  1  0.40066782  0.88374996  0.32248843  1
  O  O14  1  0.74266088  0.68641490  0.90681517  1
  O  O15  1  0.77071947  0.15191916  0.97285873  1
  O  O16  1  0.95914090  0.92763042  0.32338250  1
  O  O17  1  0.21640770  0.10996141  0.90652567  1
