# generated using pymatgen
data_BeBr2
_symmetry_space_group_name_H-M   'P 1'
_cell_length_a   5.47392941
_cell_length_b   6.02746201
_cell_length_c   6.06853485
_cell_angle_alpha   90.50472260
_cell_angle_beta   90.11158752
_cell_angle_gamma   89.98809052
_symmetry_Int_Tables_number   1
_chemical_formula_structural   BeBr2
_chemical_formula_sum   'Be2 Br4'
_cell_volume   200.21648920
_cell_formula_units_Z   2
loop_
 _symmetry_equiv_pos_site_id
 _symmetry_equiv_pos_as_xyz
  1  'x, y, z'
loop_
 _atom_site_type_symbol
 _atom_site_label
 _atom_site_symmetry_multiplicity
 _atom_site_fract_x
 _atom_site_fract_y
 _atom_site_fract_z
 _atom_site_occupancy
  Be  Be0  1  0.92242289  0.98310077  0.28482184  1
  Be  Be1  1  0.42186657  0.98231757  0.28465495  1
  Br  Br2  1  0.17329110  0.19234951  0.07502561  1
  Br  Br3  1  0.67387813  0.77129906  0.07380632  1
  Br  Br4  1  0.17479828  0.77261460  0.49572372  1
  Br  Br5  1  0.67396110  0.19210754  0.49552235  1
