# generated using pymatgen
data_Bi2Se3
_symmetry_space_group_name_H-M   'P 1'
_cell_length_a   4.20569944
_cell_length_b   4.19725800
_cell_length_c   10.03987598
_cell_angle_alpha   78.33789062
_cell_angle_beta   78.22620392
_cell_angle_gamma   59.96498871
_symmetry_Int_Tables_number   1
_chemical_formula_structural   Bi2Se3
_chemical_formula_sum   'Bi2 Se3'
_cell_volume   149.15229459
_cell_formula_units_Z   1
loop_
 _symmetry_equiv_pos_site_id
 _symmetry_equiv_pos_as_xyz
  1  'x, y, z'
loop_
 _atom_site_type_symbol
 _atom_site_label
 _atom_site_symmetry_multiplicity
 _atom_site_fract_x
 _atom_site_fract_y
 _atom_site_fract_z
 _atom_site_occupancy
  Bi  Bi0  1  0.66968840  0.44630867  0.95243430  1
  Bi  Bi1  1  0.87937230  0.65506786  0.33494386  1
  Se  Se2  1  0.49374118  0.26767361  0.49360484  1
  Se  Se3  1  0.05889623  0.83355552  0.78750318  1
  Se  Se4  1  0.27727824  0.05200195  0.14031194  1
