# generated using pymatgen
data_BiPbBrO2
_symmetry_space_group_name_H-M   'P 1'
_cell_length_a   3.98978496
_cell_length_b   3.97763896
_cell_length_c   7.24376392
_cell_angle_alpha   106.00727844
_cell_angle_beta   106.10758972
_cell_angle_gamma   90.36621094
_symmetry_Int_Tables_number   1
_chemical_formula_structural   BiPbBrO2
_chemical_formula_sum   'Bi1 Pb1 Br1 O2'
_cell_volume   105.73409176
_cell_formula_units_Z   1
loop_
 _symmetry_equiv_pos_site_id
 _symmetry_equiv_pos_as_xyz
  1  'x, y, z'
loop_
 _atom_site_type_symbol
 _atom_site_label
 _atom_site_symmetry_multiplicity
 _atom_site_fract_x
 _atom_site_fract_y
 _atom_site_fract_z
 _atom_site_occupancy
  Bi  Bi0  1  0.75218201  0.71977675  0.92271006  1
  Pb  Pb1  1  0.05817366  0.02768433  0.54119164  1
  Br  Br2  1  0.40374324  0.37302178  0.22847627  1
  O  O3  1  0.66396683  0.13138880  0.75152403  1
  O  O4  1  0.16236512  0.63085961  0.75065553  1
