# generated using pymatgen
data_BiPd2Pb
_symmetry_space_group_name_H-M   'P 1'
_cell_length_a   4.77695656
_cell_length_b   6.07576990
_cell_length_c   6.10313845
_cell_angle_alpha   104.42259216
_cell_angle_beta   89.76787567
_cell_angle_gamma   89.84595490
_symmetry_Int_Tables_number   1
_chemical_formula_structural   BiPd2Pb
_chemical_formula_sum   'Bi2 Pd4 Pb2'
_cell_volume   171.55050955
_cell_formula_units_Z   2
loop_
 _symmetry_equiv_pos_site_id
 _symmetry_equiv_pos_as_xyz
  1  'x, y, z'
loop_
 _atom_site_type_symbol
 _atom_site_label
 _atom_site_symmetry_multiplicity
 _atom_site_fract_x
 _atom_site_fract_y
 _atom_site_fract_z
 _atom_site_occupancy
  Bi  Bi0  1  0.96293974  0.11472104  0.38891041  1
  Bi  Bi1  1  0.46177247  0.36705095  0.13619877  1
  Pd  Pd2  1  0.46210417  0.36591533  0.63568068  1
  Pd  Pd3  1  0.96187133  0.61476070  0.38728207  1
  Pd  Pd4  1  0.46255448  0.86647618  0.13526237  1
  Pd  Pd5  1  0.96179414  0.11502620  0.88850421  1
  Pb  Pb6  1  0.46202055  0.86494857  0.63585401  1
  Pb  Pb7  1  0.96209812  0.61581850  0.88636822  1
