# generated using pymatgen
data_BrCl
_symmetry_space_group_name_H-M   'P 1'
_cell_length_a   4.48981762
_cell_length_b   4.50655270
_cell_length_c   8.05020809
_cell_angle_alpha   89.59522247
_cell_angle_beta   89.72988892
_cell_angle_gamma   115.09089661
_symmetry_Int_Tables_number   1
_chemical_formula_structural   BrCl
_chemical_formula_sum   'Br2 Cl2'
_cell_volume   147.50524034
_cell_formula_units_Z   2
loop_
 _symmetry_equiv_pos_site_id
 _symmetry_equiv_pos_as_xyz
  1  'x, y, z'
loop_
 _atom_site_type_symbol
 _atom_site_label
 _atom_site_symmetry_multiplicity
 _atom_site_fract_x
 _atom_site_fract_y
 _atom_site_fract_z
 _atom_site_occupancy
  Br  Br0  1  0.86818773  0.74142236  0.10562175  1
  Br  Br1  1  0.36844277  0.24521108  0.60439742  1
  Cl  Cl2  1  0.61537415  0.99455130  0.85753274  1
  Cl  Cl3  1  0.11498179  0.99470878  0.35624444  1
