# generated using pymatgen
data_Ca2GaAg
_symmetry_space_group_name_H-M   'P 1'
_cell_length_a   5.21508980
_cell_length_b   5.21472311
_cell_length_c   5.21186733
_cell_angle_alpha   59.87036514
_cell_angle_beta   60.11828613
_cell_angle_gamma   60.13388824
_symmetry_Int_Tables_number   1
_chemical_formula_structural   Ca2GaAg
_chemical_formula_sum   'Ca2 Ga1 Ag1'
_cell_volume   100.31538379
_cell_formula_units_Z   1
loop_
 _symmetry_equiv_pos_site_id
 _symmetry_equiv_pos_as_xyz
  1  'x, y, z'
loop_
 _atom_site_type_symbol
 _atom_site_label
 _atom_site_symmetry_multiplicity
 _atom_site_fract_x
 _atom_site_fract_y
 _atom_site_fract_z
 _atom_site_occupancy
  Ca  Ca0  1  0.91061682  0.83240205  0.09959497  1
  Ca  Ca1  1  0.41056013  0.33218479  0.59980917  1
  Ga  Ga2  1  0.66079181  0.58235282  0.84942102  1
  Ag  Ag3  1  0.16077670  0.08224336  0.34994328  1
