# generated using pymatgen
data_Ca2HgBi
_symmetry_space_group_name_H-M   'P 1'
_cell_length_a   5.48119926
_cell_length_b   5.49586105
_cell_length_c   5.49010324
_cell_angle_alpha   59.95012665
_cell_angle_beta   60.00478363
_cell_angle_gamma   60.02012253
_symmetry_Int_Tables_number   1
_chemical_formula_structural   Ca2HgBi
_chemical_formula_sum   'Ca2 Hg1 Bi1'
_cell_volume   116.92154138
_cell_formula_units_Z   1
loop_
 _symmetry_equiv_pos_site_id
 _symmetry_equiv_pos_as_xyz
  1  'x, y, z'
loop_
 _atom_site_type_symbol
 _atom_site_label
 _atom_site_symmetry_multiplicity
 _atom_site_fract_x
 _atom_site_fract_y
 _atom_site_fract_z
 _atom_site_occupancy
  Ca  Ca0  1  0.58151978  0.56860983  0.64976752  1
  Ca  Ca1  1  0.08107733  0.06904528  0.14980116  1
  Hg  Hg2  1  0.33039612  0.31858620  0.40007564  1
  Bi  Bi3  1  0.83085543  0.81854653  0.89968002  1
