# generated using pymatgen
data_Ca2MgAl2(SiO4)3
_symmetry_space_group_name_H-M   'P 1'
_cell_length_a   5.21649694
_cell_length_b   5.86040831
_cell_length_c   7.30542421
_cell_angle_alpha   91.24027252
_cell_angle_beta   89.97410583
_cell_angle_gamma   89.55253601
_symmetry_Int_Tables_number   1
_chemical_formula_structural   Ca2MgAl2(SiO4)3
_chemical_formula_sum   'Ca2 Mg1 Al2 Si3 O12'
_cell_volume   223.27350195
_cell_formula_units_Z   1
loop_
 _symmetry_equiv_pos_site_id
 _symmetry_equiv_pos_as_xyz
  1  'x, y, z'
loop_
 _atom_site_type_symbol
 _atom_site_label
 _atom_site_symmetry_multiplicity
 _atom_site_fract_x
 _atom_site_fract_y
 _atom_site_fract_z
 _atom_site_occupancy
  Ca  Ca0  1  0.88881165  0.70399201  0.05143458  1
  Ca  Ca1  1  0.38612840  0.03974969  0.55078602  1
  Mg  Mg2  1  0.37030759  0.11611304  0.06328178  1
  Al  Al3  1  0.87531203  0.14092799  0.81379712  1
  Al  Al4  1  0.37468129  0.58862180  0.29689151  1
  Si  Si5  1  0.84794152  0.22763164  0.29379106  1
  Si  Si6  1  0.34507686  0.50805962  0.79987037  1
  Si  Si7  1  0.89731658  0.76806533  0.54084134  1
  O  O8  1  0.95024240  0.11729538  0.50748873  1
  O  O9  1  0.07734856  0.39454904  0.23682369  1
  O  O10  1  0.17735828  0.96933430  0.85387999  1
  O  O11  1  0.68727529  0.73065227  0.37994170  1
  O  O12  1  0.55461782  0.29875544  0.76164162  1
  O  O13  1  0.74899948  0.84354752  0.72331828  1
  O  O14  1  0.55762136  0.31139711  0.33435112  1
  O  O15  1  0.22191408  0.64591497  0.55868787  1
  O  O16  1  0.75802547  0.09065036  0.06750232  1
  O  O17  1  0.45205998  0.58234531  0.01267432  1
  O  O18  1  0.06252961  0.40449703  0.83610934  1
  O  O19  1  0.24868521  0.87855220  0.24039273  1
