# generated using pymatgen
data_Ca2Ti3O8
_symmetry_space_group_name_H-M   'P 1'
_cell_length_a   3.59746814
_cell_length_b   6.23814821
_cell_length_c   7.94400120
_cell_angle_alpha   101.60890961
_cell_angle_beta   89.88127136
_cell_angle_gamma   107.01277161
_symmetry_Int_Tables_number   1
_chemical_formula_structural   Ca2Ti3O8
_chemical_formula_sum   'Ca2 Ti3 O8'
_cell_volume   166.67961671
_cell_formula_units_Z   1
loop_
 _symmetry_equiv_pos_site_id
 _symmetry_equiv_pos_as_xyz
  1  'x, y, z'
loop_
 _atom_site_type_symbol
 _atom_site_label
 _atom_site_symmetry_multiplicity
 _atom_site_fract_x
 _atom_site_fract_y
 _atom_site_fract_z
 _atom_site_occupancy
  Ca  Ca0  1  0.71352941  0.60649621  0.00928298  1
  Ca  Ca1  1  0.76078135  0.70125282  0.60115230  1
  Ti  Ti2  1  0.42177603  0.03609173  0.90495521  1
  Ti  Ti3  1  0.06807925  0.30847889  0.29753509  1
  Ti  Ti4  1  0.38916504  0.95104158  0.37587267  1
  O  O5  1  0.20568064  0.58822244  0.78963238  1
  O  O6  1  0.41613582  0.01621126  0.64358699  1
  O  O7  1  0.07341145  0.32721570  0.07608975  1
  O  O8  1  0.22807243  0.63176638  0.39287394  1
  O  O9  1  0.87704623  0.93873364  0.86944497  1
  O  O10  1  0.55787635  0.29174134  0.37329739  1
  O  O11  1  0.35450730  0.88254875  0.11384417  1
  O  O12  1  0.90721047  0.99099344  0.37207857  1
