# generated using pymatgen
data_Ca2VWO6
_symmetry_space_group_name_H-M   'P 1'
_cell_length_a   5.51104021
_cell_length_b   5.70606279
_cell_length_c   7.79415417
_cell_angle_alpha   89.90359497
_cell_angle_beta   90.03524017
_cell_angle_gamma   90.10839081
_symmetry_Int_Tables_number   1
_chemical_formula_structural   Ca2VWO6
_chemical_formula_sum   'Ca4 V2 W2 O12'
_cell_volume   245.09680225
_cell_formula_units_Z   2
loop_
 _symmetry_equiv_pos_site_id
 _symmetry_equiv_pos_as_xyz
  1  'x, y, z'
loop_
 _atom_site_type_symbol
 _atom_site_label
 _atom_site_symmetry_multiplicity
 _atom_site_fract_x
 _atom_site_fract_y
 _atom_site_fract_z
 _atom_site_occupancy
  Ca  Ca0  1  0.31494439  0.15454625  0.45204586  1
  Ca  Ca1  1  0.84471858  0.65443105  0.45085329  1
  Ca  Ca2  1  0.34601408  0.27133858  0.90035963  1
  Ca  Ca3  1  0.81442082  0.77224183  0.90005445  1
  V  V4  1  0.83026236  0.21116267  0.67472965  1
  V  V5  1  0.33060116  0.71330649  0.67436743  1
  W  W6  1  0.33045426  0.71234870  0.17464283  1
  W  W7  1  0.83050072  0.21212673  0.17528026  1
  O  O8  1  0.12822297  0.41552791  0.62975103  1
  O  O9  1  0.12841803  0.41602525  0.22940485  1
  O  O10  1  0.53188062  0.00813723  0.72525775  1
  O  O11  1  0.43199313  0.74476647  0.41357276  1
  O  O12  1  0.73036098  0.24448803  0.41454339  1
  O  O13  1  0.03110431  0.91512722  0.62949938  1
  O  O14  1  0.22916026  0.67903256  0.93722570  1
  O  O15  1  0.03143518  0.91549706  0.22831266  1
  O  O16  1  0.93234497  0.17859805  0.93418491  1
  O  O17  1  0.53187078  0.00837653  0.11806680  1
  O  O18  1  0.62850201  0.50804532  0.11770331  1
  O  O19  1  0.62922215  0.50823903  0.72507352  1
