# generated using pymatgen
data_Ca2ZrTi(GeO5)2
_symmetry_space_group_name_H-M   'P 1'
_cell_length_a   5.70330954
_cell_length_b   5.77263641
_cell_length_c   7.39213753
_cell_angle_alpha   104.48570251
_cell_angle_beta   103.29814911
_cell_angle_gamma   106.88501740
_symmetry_Int_Tables_number   1
_chemical_formula_structural   Ca2ZrTi(GeO5)2
_chemical_formula_sum   'Ca2 Zr1 Ti1 Ge2 O10'
_cell_volume   213.10535417
_cell_formula_units_Z   1
loop_
 _symmetry_equiv_pos_site_id
 _symmetry_equiv_pos_as_xyz
  1  'x, y, z'
loop_
 _atom_site_type_symbol
 _atom_site_label
 _atom_site_symmetry_multiplicity
 _atom_site_fract_x
 _atom_site_fract_y
 _atom_site_fract_z
 _atom_site_occupancy
  Ca  Ca0  1  0.16170114  0.31502146  0.22092539  1
  Ca  Ca1  1  0.82824022  0.64523131  0.67280167  1
  Zr  Zr2  1  0.48942989  0.97465008  0.95515484  1
  Ti  Ti3  1  0.49661204  0.97602671  0.45482984  1
  Ge  Ge4  1  0.81429207  0.66819334  0.20161040  1
  Ge  Ge5  1  0.18074268  0.29036412  0.70151031  1
  O  O6  1  0.58301890  0.66535825  0.33866438  1
  O  O7  1  0.87290937  0.22011805  0.52263993  1
  O  O8  1  0.75522882  0.35679644  0.04119724  1
  O  O9  1  0.57421410  0.89789850  0.69163650  1
  O  O10  1  0.17214777  0.08128796  0.84061134  1
  O  O11  1  0.41668069  0.29137421  0.57976449  1
  O  O12  1  0.22111362  0.60294235  0.86459547  1
  O  O13  1  0.41009036  0.06131416  0.22171365  1
  O  O14  1  0.11646689  0.73184371  0.38364387  1
  O  O15  1  0.81502354  0.88850957  0.07931495  1
