# generated using pymatgen
data_CaAu
_symmetry_space_group_name_H-M   'P 1'
_cell_length_a   3.95098972
_cell_length_b   4.77984238
_cell_length_c   5.99794388
_cell_angle_alpha   90.17317963
_cell_angle_beta   109.53258514
_cell_angle_gamma   90.16464996
_symmetry_Int_Tables_number   1
_chemical_formula_structural   CaAu
_chemical_formula_sum   'Ca2 Au2'
_cell_volume   106.75180063
_cell_formula_units_Z   2
loop_
 _symmetry_equiv_pos_site_id
 _symmetry_equiv_pos_as_xyz
  1  'x, y, z'
loop_
 _atom_site_type_symbol
 _atom_site_label
 _atom_site_symmetry_multiplicity
 _atom_site_fract_x
 _atom_site_fract_y
 _atom_site_fract_z
 _atom_site_occupancy
  Ca  Ca0  1  0.02601119  0.76482350  0.52477801  1
  Ca  Ca1  1  0.74713624  0.26526228  0.97510046  1
  Au  Au2  1  0.46666592  0.26448613  0.41157132  1
  Au  Au3  1  0.30281872  0.76433867  0.07980429  1
