# generated using pymatgen
data_CaCrF6
_symmetry_space_group_name_H-M   'P 1'
_cell_length_a   5.47180080
_cell_length_b   5.48588562
_cell_length_c   5.64728308
_cell_angle_alpha   60.90003586
_cell_angle_beta   61.05898666
_cell_angle_gamma   60.01234055
_symmetry_Int_Tables_number   1
_chemical_formula_structural   CaCrF6
_chemical_formula_sum   'Ca1 Cr1 F6'
_cell_volume   121.62285809
_cell_formula_units_Z   1
loop_
 _symmetry_equiv_pos_site_id
 _symmetry_equiv_pos_as_xyz
  1  'x, y, z'
loop_
 _atom_site_type_symbol
 _atom_site_label
 _atom_site_symmetry_multiplicity
 _atom_site_fract_x
 _atom_site_fract_y
 _atom_site_fract_z
 _atom_site_occupancy
  Ca  Ca0  1  0.90444255  0.50976378  0.71875691  1
  Cr  Cr1  1  0.40415004  0.00988713  0.21908443  1
  F  F2  1  0.27627674  0.69154847  0.44372892  1
  F  F3  1  0.62443697  0.88499242  0.44542509  1
  F  F4  1  0.72819448  0.78995109  0.99434388  1
  F  F5  1  0.08414315  0.22874947  0.44396096  1
  F  F6  1  0.17920440  0.13796729  0.99168557  1
  F  F7  1  0.52959168  0.33579352  0.99601150  1
