# generated using pymatgen
data_CaInPd
_symmetry_space_group_name_H-M   'P 1'
_cell_length_a   4.45289278
_cell_length_b   7.40830994
_cell_length_c   8.45210743
_cell_angle_alpha   89.93850708
_cell_angle_beta   89.93512726
_cell_angle_gamma   89.97076416
_symmetry_Int_Tables_number   1
_chemical_formula_structural   CaInPd
_chemical_formula_sum   'Ca4 In4 Pd4'
_cell_volume   278.82120839
_cell_formula_units_Z   4
loop_
 _symmetry_equiv_pos_site_id
 _symmetry_equiv_pos_as_xyz
  1  'x, y, z'
loop_
 _atom_site_type_symbol
 _atom_site_label
 _atom_site_symmetry_multiplicity
 _atom_site_fract_x
 _atom_site_fract_y
 _atom_site_fract_z
 _atom_site_occupancy
  Ca  Ca0  1  0.96663511  0.84264624  0.18548639  1
  Ca  Ca1  1  0.46625441  0.78918672  0.54643309  1
  Ca  Ca2  1  0.96673501  0.34237146  0.04710504  1
  Ca  Ca3  1  0.46660534  0.28957260  0.68543738  1
  In  In4  1  0.96668506  0.46686742  0.42834657  1
  In  In5  1  0.46650311  0.16384375  0.30111593  1
  In  In6  1  0.46647751  0.66335297  0.92847234  1
  In  In7  1  0.96663404  0.96686614  0.80093431  1
  Pd  Pd8  1  0.46653447  0.04418195  0.98979384  1
  Pd  Pd9  1  0.96647608  0.58613682  0.74285227  1
  Pd  Pd10  1  0.46658623  0.54507279  0.24336024  1
  Pd  Pd11  1  0.96686769  0.08541644  0.48979020  1
