# generated using pymatgen
data_CaLa
_symmetry_space_group_name_H-M   'P 1'
_cell_length_a   3.80759192
_cell_length_b   3.74969578
_cell_length_c   6.30506372
_cell_angle_alpha   89.88402557
_cell_angle_beta   89.75230408
_cell_angle_gamma   119.27220154
_symmetry_Int_Tables_number   1
_chemical_formula_structural   CaLa
_chemical_formula_sum   'Ca1 La1'
_cell_volume   78.52286310
_cell_formula_units_Z   1
loop_
 _symmetry_equiv_pos_site_id
 _symmetry_equiv_pos_as_xyz
  1  'x, y, z'
loop_
 _atom_site_type_symbol
 _atom_site_label
 _atom_site_symmetry_multiplicity
 _atom_site_fract_x
 _atom_site_fract_y
 _atom_site_fract_z
 _atom_site_occupancy
  Ca  Ca0  1  0.09156247  0.44466352  0.27222067  1
  La  La1  1  0.75700396  0.77909428  0.77153921  1
