# generated using pymatgen
data_CaSbPt
_symmetry_space_group_name_H-M   'P 1'
_cell_length_a   4.71525478
_cell_length_b   7.52548885
_cell_length_c   7.97020435
_cell_angle_alpha   90.01542664
_cell_angle_beta   89.92114258
_cell_angle_gamma   90.04809570
_symmetry_Int_Tables_number   1
_chemical_formula_structural   CaSbPt
_chemical_formula_sum   'Ca4 Sb4 Pt4'
_cell_volume   282.81911433
_cell_formula_units_Z   4
loop_
 _symmetry_equiv_pos_site_id
 _symmetry_equiv_pos_as_xyz
  1  'x, y, z'
loop_
 _atom_site_type_symbol
 _atom_site_label
 _atom_site_symmetry_multiplicity
 _atom_site_fract_x
 _atom_site_fract_y
 _atom_site_fract_z
 _atom_site_occupancy
  Ca  Ca0  1  0.70587760  0.19011158  0.33960745  1
  Ca  Ca1  1  0.20600882  0.17876072  0.73511660  1
  Ca  Ca2  1  0.70536578  0.68868077  0.23546100  1
  Ca  Ca3  1  0.20568900  0.67905331  0.83959973  1
  Sb  Sb4  1  0.20629781  0.99888521  0.12945281  1
  Sb  Sb5  1  0.70603609  0.86895704  0.62991339  1
  Sb  Sb6  1  0.20627679  0.49897978  0.44686544  1
  Sb  Sb7  1  0.70603180  0.36977482  0.94683915  1
  Pt  Pt8  1  0.70611638  0.49096370  0.62345505  1
  Pt  Pt9  1  0.20607392  0.87615645  0.44948813  1
  Pt  Pt10  1  0.20618457  0.37648898  0.12396889  1
  Pt  Pt11  1  0.70613414  0.99023938  0.94903117  1
