# generated using pymatgen
data_CaSi2
_symmetry_space_group_name_H-M   'P 1'
_cell_length_a   3.97651052
_cell_length_b   3.96588278
_cell_length_c   4.69037628
_cell_angle_alpha   90.31966400
_cell_angle_beta   89.78477478
_cell_angle_gamma   120.76021576
_symmetry_Int_Tables_number   1
_chemical_formula_structural   CaSi2
_chemical_formula_sum   'Ca1 Si2'
_cell_volume   63.56165654
_cell_formula_units_Z   1
loop_
 _symmetry_equiv_pos_site_id
 _symmetry_equiv_pos_as_xyz
  1  'x, y, z'
loop_
 _atom_site_type_symbol
 _atom_site_label
 _atom_site_symmetry_multiplicity
 _atom_site_fract_x
 _atom_site_fract_y
 _atom_site_fract_z
 _atom_site_occupancy
  Ca  Ca0  1  0.98776358  0.18187974  0.45655021  1
  Si  Si1  1  0.65315914  0.51571244  0.03251932  1
  Si  Si2  1  0.32057142  0.84921914  0.87926698  1
