# generated using pymatgen
data_CaTb3Mn4O12
_symmetry_space_group_name_H-M   'P 1'
_cell_length_a   5.40682840
_cell_length_b   5.82085896
_cell_length_c   7.76808929
_cell_angle_alpha   90.06243896
_cell_angle_beta   89.99580383
_cell_angle_gamma   90.09105682
_symmetry_Int_Tables_number   1
_chemical_formula_structural   CaTb3Mn4O12
_chemical_formula_sum   'Ca1 Tb3 Mn4 O12'
_cell_volume   244.47984659
_cell_formula_units_Z   1
loop_
 _symmetry_equiv_pos_site_id
 _symmetry_equiv_pos_as_xyz
  1  'x, y, z'
loop_
 _atom_site_type_symbol
 _atom_site_label
 _atom_site_symmetry_multiplicity
 _atom_site_fract_x
 _atom_site_fract_y
 _atom_site_fract_z
 _atom_site_occupancy
  Ca  Ca0  1  0.29166710  0.38999632  0.39005738  1
  Tb  Tb1  1  0.80634129  0.97596979  0.89233714  1
  Tb  Tb2  1  0.77706385  0.48789844  0.13561718  1
  Tb  Tb3  1  0.27442786  0.85270047  0.63137257  1
  Mn  Mn4  1  0.29032364  0.42545483  0.87323421  1
  Mn  Mn5  1  0.80067855  0.43158275  0.66612923  1
  Mn  Mn6  1  0.30071685  0.95964879  0.17224148  1
  Mn  Mn7  1  0.78989851  0.92102420  0.37873581  1
  O  O8  1  0.61183852  0.31625891  0.90155053  1
  O  O9  1  0.93668950  0.59474468  0.46626973  1
  O  O10  1  0.10671388  0.02843199  0.40117103  1
  O  O11  1  0.10316955  0.17517757  0.75436121  1
  O  O12  1  0.43877381  0.80474019  0.96640193  1
  O  O13  1  0.66112608  0.99153334  0.59882766  1
  O  O14  1  0.15985344  0.31137228  0.08417439  1
  O  O15  1  0.96325421  0.83191699  0.14902227  1
  O  O16  1  0.50055641  0.73663074  0.31410047  1
  O  O17  1  0.60253727  0.15815194  0.25423831  1
  O  O18  1  0.00141896  0.63104278  0.81596375  1
  O  O19  1  0.46234766  0.51551259  0.65034640  1
