# generated using pymatgen
data_CaTi2PbO6
_symmetry_space_group_name_H-M   'P 1'
_cell_length_a   5.34563923
_cell_length_b   5.36266756
_cell_length_c   6.00142813
_cell_angle_alpha   63.15519333
_cell_angle_beta   63.47543335
_cell_angle_gamma   60.12355804
_symmetry_Int_Tables_number   1
_chemical_formula_structural   CaTi2PbO6
_chemical_formula_sum   'Ca1 Ti2 Pb1 O6'
_cell_volume   127.52281773
_cell_formula_units_Z   1
loop_
 _symmetry_equiv_pos_site_id
 _symmetry_equiv_pos_as_xyz
  1  'x, y, z'
loop_
 _atom_site_type_symbol
 _atom_site_label
 _atom_site_symmetry_multiplicity
 _atom_site_fract_x
 _atom_site_fract_y
 _atom_site_fract_z
 _atom_site_occupancy
  Ca  Ca0  1  0.68677700  0.94087577  0.77180386  1
  Ti  Ti1  1  0.47310945  0.73611587  0.39418903  1
  Ti  Ti2  1  0.16409877  0.42677811  0.32585248  1
  Pb  Pb3  1  0.96140265  0.21673505  0.94802713  1
  O  O4  1  0.28659806  0.14295420  0.15417491  1
  O  O5  1  0.13194518  0.61430818  0.57592773  1
  O  O6  1  0.87815422  0.75817311  0.15414074  1
  O  O7  1  0.50525886  0.55167770  0.15433656  1
  O  O8  1  0.76384169  0.38263562  0.57707417  1
  O  O9  1  0.36139700  0.01921913  0.57629609  1
