# generated using pymatgen
data_CaYb3
_symmetry_space_group_name_H-M   'P 1'
_cell_length_a   5.43843269
_cell_length_b   5.42092705
_cell_length_c   5.41318560
_cell_angle_alpha   89.82134247
_cell_angle_beta   90.09077454
_cell_angle_gamma   89.94520569
_symmetry_Int_Tables_number   1
_chemical_formula_structural   CaYb3
_chemical_formula_sum   'Ca1 Yb3'
_cell_volume   159.58695247
_cell_formula_units_Z   1
loop_
 _symmetry_equiv_pos_site_id
 _symmetry_equiv_pos_as_xyz
  1  'x, y, z'
loop_
 _atom_site_type_symbol
 _atom_site_label
 _atom_site_symmetry_multiplicity
 _atom_site_fract_x
 _atom_site_fract_y
 _atom_site_fract_z
 _atom_site_occupancy
  Ca  Ca0  1  0.51566583  0.89115137  0.13058564  1
  Yb  Yb1  1  0.51622623  0.39093137  0.63035375  1
  Yb  Yb2  1  0.01574855  0.89125073  0.62997204  1
  Yb  Yb3  1  0.01553286  0.39084131  0.12967242  1
