# generated using pymatgen
data_CBr3F
_symmetry_space_group_name_H-M   'P 1'
_cell_length_a   5.58187628
_cell_length_b   9.88040352
_cell_length_c   12.51849747
_cell_angle_alpha   89.94730377
_cell_angle_beta   89.99826813
_cell_angle_gamma   89.97975922
_symmetry_Int_Tables_number   1
_chemical_formula_structural   CBr3F
_chemical_formula_sum   'C4 Br12 F4'
_cell_volume   690.40969714
_cell_formula_units_Z   4
loop_
 _symmetry_equiv_pos_site_id
 _symmetry_equiv_pos_as_xyz
  1  'x, y, z'
loop_
 _atom_site_type_symbol
 _atom_site_label
 _atom_site_symmetry_multiplicity
 _atom_site_fract_x
 _atom_site_fract_y
 _atom_site_fract_z
 _atom_site_occupancy
  C  C0  1  0.75731182  0.25391793  0.24153239  1
  C  C1  1  0.34636146  0.21461640  0.74054682  1
  C  C2  1  0.75325572  0.75178421  0.95849758  1
  C  C3  1  0.90276992  0.75468278  0.51824576  1
  Br  Br4  1  0.04239105  0.59574425  0.60790098  1
  Br  Br5  1  0.96811938  0.59777862  0.02865950  1
  Br  Br6  1  0.04515074  0.75454801  0.37236834  1
  Br  Br7  1  0.54957700  0.44334859  0.24095626  1
  Br  Br8  1  0.57545948  0.74931830  0.52720159  1
  Br  Br9  1  0.56520575  0.09694451  0.26581585  1
  Br  Br10  1  0.98067516  0.25895762  0.36016545  1
  Br  Br11  1  0.96891052  0.86492193  0.87539637  1
  Br  Br12  1  0.46773556  0.35235104  0.84989452  1
  Br  Br13  1  0.54932469  0.85051787  0.06767628  1
  Br  Br14  1  0.47196811  0.25377098  0.59404248  1
  Br  Br15  1  0.97167021  0.21346053  0.09757778  1
  F  F16  1  0.57215536  0.70663536  0.87997413  1
  F  F17  1  0.97036672  0.92807996  0.55420238  1
  F  F18  1  0.06644711  0.20695466  0.74338925  1
  F  F19  1  0.46672261  0.08269366  0.75961393  1
