# generated using pymatgen
data_Cd2GaCuS4
_symmetry_space_group_name_H-M   'P 1'
_cell_length_a   5.70850039
_cell_length_b   5.70625257
_cell_length_c   6.83789349
_cell_angle_alpha   114.40431976
_cell_angle_beta   114.71231079
_cell_angle_gamma   90.12228394
_symmetry_Int_Tables_number   1
_chemical_formula_structural   Cd2GaCuS4
_chemical_formula_sum   'Cd2 Ga1 Cu1 S4'
_cell_volume   180.09757927
_cell_formula_units_Z   1
loop_
 _symmetry_equiv_pos_site_id
 _symmetry_equiv_pos_as_xyz
  1  'x, y, z'
loop_
 _atom_site_type_symbol
 _atom_site_label
 _atom_site_symmetry_multiplicity
 _atom_site_fract_x
 _atom_site_fract_y
 _atom_site_fract_z
 _atom_site_occupancy
  Cd  Cd0  1  0.23520690  0.69121522  0.82395452  1
  Cd  Cd1  1  0.48464566  0.44182003  0.32460386  1
  Ga  Ga2  1  0.98442149  0.94290733  0.32427707  1
  Cu  Cu3  1  0.73514789  0.19087265  0.82415742  1
  S  S4  1  0.35657543  0.85295087  0.57343209  1
  S  S5  1  0.64432693  0.56849116  0.07482578  1
  S  S6  1  0.85814351  0.28350201  0.57362336  1
  S  S7  1  0.07117596  0.06049000  0.07385199  1
