# generated using pymatgen
data_Cd2InAgS4
_symmetry_space_group_name_H-M   'P 1'
_cell_length_a   5.85256815
_cell_length_b   5.85892010
_cell_length_c   5.83594513
_cell_angle_alpha   90.07559204
_cell_angle_beta   89.90277100
_cell_angle_gamma   90.01343536
_symmetry_Int_Tables_number   1
_chemical_formula_structural   Cd2InAgS4
_chemical_formula_sum   'Cd2 In1 Ag1 S4'
_cell_volume   200.11251015
_cell_formula_units_Z   1
loop_
 _symmetry_equiv_pos_site_id
 _symmetry_equiv_pos_as_xyz
  1  'x, y, z'
loop_
 _atom_site_type_symbol
 _atom_site_label
 _atom_site_symmetry_multiplicity
 _atom_site_fract_x
 _atom_site_fract_y
 _atom_site_fract_z
 _atom_site_occupancy
  Cd  Cd0  1  0.24998811  0.60116935  0.89902115  1
  Cd  Cd1  1  0.74949467  0.10108043  0.89985734  1
  In  In2  1  0.24963270  0.10146680  0.39970937  1
  Ag  Ag3  1  0.74921238  0.60164434  0.39953318  1
  S  S4  1  0.49445698  0.85807788  0.64828241  1
  S  S5  1  0.00561894  0.85790938  0.15007164  1
  S  S6  1  0.00698565  0.34611201  0.64854407  1
  S  S7  1  0.49272293  0.34564632  0.14990929  1
