# generated using pymatgen
data_Cd3In
_symmetry_space_group_name_H-M   'P 1'
_cell_length_a   4.60684538
_cell_length_b   4.57880497
_cell_length_c   5.63876772
_cell_angle_alpha   114.16930389
_cell_angle_beta   114.91270447
_cell_angle_gamma   90.01908875
_symmetry_Int_Tables_number   1
_chemical_formula_structural   Cd3In
_chemical_formula_sum   'Cd3 In1'
_cell_volume   96.24916361
_cell_formula_units_Z   1
loop_
 _symmetry_equiv_pos_site_id
 _symmetry_equiv_pos_as_xyz
  1  'x, y, z'
loop_
 _atom_site_type_symbol
 _atom_site_label
 _atom_site_symmetry_multiplicity
 _atom_site_fract_x
 _atom_site_fract_y
 _atom_site_fract_z
 _atom_site_occupancy
  Cd  Cd0  1  0.88247043  0.09749984  0.34618643  1
  Cd  Cd1  1  0.63270479  0.34789810  0.84640777  1
  Cd  Cd2  1  0.38263917  0.59774804  0.34613416  1
  In  In3  1  0.13298413  0.84787410  0.84623271  1
