# generated using pymatgen
data_CdBiClO2
_symmetry_space_group_name_H-M   'P 1'
_cell_length_a   5.52460146
_cell_length_b   5.59895086
_cell_length_c   6.54573774
_cell_angle_alpha   64.41300964
_cell_angle_beta   90.02542877
_cell_angle_gamma   90.01506805
_symmetry_Int_Tables_number   1
_chemical_formula_structural   CdBiClO2
_chemical_formula_sum   'Cd2 Bi2 Cl2 O4'
_cell_volume   182.61619722
_cell_formula_units_Z   2
loop_
 _symmetry_equiv_pos_site_id
 _symmetry_equiv_pos_as_xyz
  1  'x, y, z'
loop_
 _atom_site_type_symbol
 _atom_site_label
 _atom_site_symmetry_multiplicity
 _atom_site_fract_x
 _atom_site_fract_y
 _atom_site_fract_z
 _atom_site_occupancy
  Cd  Cd0  1  0.70923549  0.13330579  0.08858543  1
  Cd  Cd1  1  0.70934200  0.80562252  0.68769515  1
  Bi  Bi2  1  0.20951255  0.63652515  0.06932469  1
  Bi  Bi3  1  0.20973530  0.30308706  0.70813316  1
  Cl  Cl4  1  0.20995995  0.96688628  0.38898113  1
  Cl  Cl5  1  0.70968908  0.46718967  0.38901407  1
  O  O6  1  0.45391649  0.96821374  0.88783556  1
  O  O7  1  0.45376080  0.46755722  0.88842219  1
  O  O8  1  0.96409637  0.46663353  0.88783222  1
  O  O9  1  0.96497911  0.96868664  0.88694656  1
