# generated using pymatgen
data_CdHg2
_symmetry_space_group_name_H-M   'P 1'
_cell_length_a   3.23527217
_cell_length_b   5.30855608
_cell_length_c   5.27803326
_cell_angle_alpha   120.53944397
_cell_angle_beta   90.08448029
_cell_angle_gamma   89.88186646
_symmetry_Int_Tables_number   1
_chemical_formula_structural   CdHg2
_chemical_formula_sum   'Cd1 Hg2'
_cell_volume   78.07329604
_cell_formula_units_Z   1
loop_
 _symmetry_equiv_pos_site_id
 _symmetry_equiv_pos_as_xyz
  1  'x, y, z'
loop_
 _atom_site_type_symbol
 _atom_site_label
 _atom_site_symmetry_multiplicity
 _atom_site_fract_x
 _atom_site_fract_y
 _atom_site_fract_z
 _atom_site_occupancy
  Cd  Cd0  1  0.08764382  0.60214996  0.00465369  1
  Hg  Hg1  1  0.58786410  0.27060044  0.33933613  1
  Hg  Hg2  1  0.58807552  0.93647605  0.67209458  1
