# generated using pymatgen
data_CdI2
_symmetry_space_group_name_H-M   'P 1'
_cell_length_a   4.35943031
_cell_length_b   4.28645945
_cell_length_c   40.71724701
_cell_angle_alpha   85.18257904
_cell_angle_beta   86.20800781
_cell_angle_gamma   63.68886948
_symmetry_Int_Tables_number   1
_chemical_formula_structural   CdI2
_chemical_formula_sum   'Cd6 I12'
_cell_volume   679.27302474
_cell_formula_units_Z   6
loop_
 _symmetry_equiv_pos_site_id
 _symmetry_equiv_pos_as_xyz
  1  'x, y, z'
loop_
 _atom_site_type_symbol
 _atom_site_label
 _atom_site_symmetry_multiplicity
 _atom_site_fract_x
 _atom_site_fract_y
 _atom_site_fract_z
 _atom_site_occupancy
  Cd  Cd0  1  0.51933575  0.37662107  0.05453788  1
  Cd  Cd1  1  0.29432270  0.14111538  0.75497818  1
  Cd  Cd2  1  0.67327106  0.51959306  0.62186378  1
  Cd  Cd3  1  0.92170703  0.76442122  0.88342136  1
  Cd  Cd4  1  0.80046076  0.65190417  0.20438071  1
  Cd  Cd5  1  0.08524501  0.93229103  0.36262992  1
  I  I6  1  0.42533314  0.26741174  0.34837785  1
  I  I7  1  0.63087791  0.47645381  0.74392980  1
  I  I8  1  0.99175590  0.83581597  0.66385901  1
  I  I9  1  0.06547699  0.90452307  0.42772463  1
  I  I10  1  0.35235119  0.19622764  0.56998038  1
  I  I11  1  0.78305173  0.62169147  0.27563295  1
  I  I12  1  0.47768214  0.32343009  0.17472720  1
  I  I13  1  0.71350056  0.56132823  0.48552322  1
  I  I14  1  0.87613535  0.71337515  0.00747961  1
  I  I15  1  0.57279241  0.41317612  0.91610050  1
  I  I16  1  0.25807351  0.10464649  0.84429806  1
  I  I17  1  0.17561224  0.02013758  0.08600278  1
