# generated using pymatgen
data_CdSe2O5
_symmetry_space_group_name_H-M   'P 1'
_cell_length_a   5.19186974
_cell_length_b   5.89108801
_cell_length_c   8.72734833
_cell_angle_alpha   90.81145477
_cell_angle_beta   90.06133270
_cell_angle_gamma   93.21487427
_symmetry_Int_Tables_number   1
_chemical_formula_structural   CdSe2O5
_chemical_formula_sum   'Cd2 Se4 O10'
_cell_volume   266.48531408
_cell_formula_units_Z   2
loop_
 _symmetry_equiv_pos_site_id
 _symmetry_equiv_pos_as_xyz
  1  'x, y, z'
loop_
 _atom_site_type_symbol
 _atom_site_label
 _atom_site_symmetry_multiplicity
 _atom_site_fract_x
 _atom_site_fract_y
 _atom_site_fract_z
 _atom_site_occupancy
  Cd  Cd0  1  0.79077494  0.90939337  0.68993777  1
  Cd  Cd1  1  0.24336869  0.41282317  0.18904316  1
  Se  Se2  1  0.75235617  0.88196647  0.07000850  1
  Se  Se3  1  0.75774711  0.38700137  0.48798451  1
  Se  Se4  1  0.26898992  0.91844118  0.36301461  1
  Se  Se5  1  0.25717288  0.41957253  0.80405128  1
  O  O6  1  0.37024677  0.67555612  0.73709220  1
  O  O7  1  0.10626370  0.85414243  0.49209756  1
  O  O8  1  0.36296189  0.83001995  0.18818100  1
  O  O9  1  0.61328435  0.11791569  0.49882177  1
  O  O10  1  0.06745495  0.35321361  0.41713682  1
  O  O11  1  0.11325619  0.17802052  0.73730141  1
  O  O12  1  0.61004508  0.55568773  0.36322677  1
  O  O13  1  0.36649704  0.34870362  0.97470617  1
  O  O14  1  0.86319005  0.70878863  0.92003405  1
  O  O15  1  0.86746144  0.12383182  0.09623903  1
