# generated using pymatgen
data_CdTe
_symmetry_space_group_name_H-M   'P 1'
_cell_length_a   4.64634418
_cell_length_b   4.61073303
_cell_length_c   4.57426023
_cell_angle_alpha   59.50065231
_cell_angle_beta   59.25212860
_cell_angle_gamma   59.94068527
_symmetry_Int_Tables_number   1
_chemical_formula_structural   CdTe
_chemical_formula_sum   'Cd1 Te1'
_cell_volume   68.60144580
_cell_formula_units_Z   1
loop_
 _symmetry_equiv_pos_site_id
 _symmetry_equiv_pos_as_xyz
  1  'x, y, z'
loop_
 _atom_site_type_symbol
 _atom_site_label
 _atom_site_symmetry_multiplicity
 _atom_site_fract_x
 _atom_site_fract_y
 _atom_site_fract_z
 _atom_site_occupancy
  Cd  Cd0  1  0.86476570  0.77628779  0.23867087  1
  Te  Te1  1  0.61572456  0.52560228  0.98835051  1
