# generated using pymatgen
data_Ce(AlGa)2
_symmetry_space_group_name_H-M   'P 1'
_cell_length_a   4.24896431
_cell_length_b   4.23720121
_cell_length_c   6.35681057
_cell_angle_alpha   109.30664062
_cell_angle_beta   109.54695129
_cell_angle_gamma   90.07373047
_symmetry_Int_Tables_number   1
_chemical_formula_structural   Ce(AlGa)2
_chemical_formula_sum   'Ce1 Al2 Ga2'
_cell_volume   100.97622341
_cell_formula_units_Z   1
loop_
 _symmetry_equiv_pos_site_id
 _symmetry_equiv_pos_as_xyz
  1  'x, y, z'
loop_
 _atom_site_type_symbol
 _atom_site_label
 _atom_site_symmetry_multiplicity
 _atom_site_fract_x
 _atom_site_fract_y
 _atom_site_fract_z
 _atom_site_occupancy
  Ce  Ce0  1  0.62411904  0.05754301  0.82829410  1
  Al  Al1  1  0.87502694  0.80848157  0.32841277  1
  Al  Al2  1  0.23905224  0.67207849  0.05606617  1
  Ga  Ga3  1  0.01031796  0.44451675  0.60373086  1
  Ga  Ga4  1  0.37542039  0.30848241  0.32840416  1
