# generated using pymatgen
data_Ce(Sn2Pd)2
_symmetry_space_group_name_H-M   'P 1'
_cell_length_a   4.58021498
_cell_length_b   8.09518623
_cell_length_c   9.61487103
_cell_angle_alpha   108.24530792
_cell_angle_beta   103.65180206
_cell_angle_gamma   89.91986084
_symmetry_Int_Tables_number   1
_chemical_formula_structural   Ce(Sn2Pd)2
_chemical_formula_sum   'Ce2 Sn8 Pd4'
_cell_volume   327.99219971
_cell_formula_units_Z   2
loop_
 _symmetry_equiv_pos_site_id
 _symmetry_equiv_pos_as_xyz
  1  'x, y, z'
loop_
 _atom_site_type_symbol
 _atom_site_label
 _atom_site_symmetry_multiplicity
 _atom_site_fract_x
 _atom_site_fract_y
 _atom_site_fract_z
 _atom_site_occupancy
  Ce  Ce0  1  0.91871810  0.87935919  0.96460944  1
  Ce  Ce1  1  0.14737982  0.29488051  0.41715705  1
  Sn  Sn2  1  0.35711917  0.11540542  0.83681351  1
  Sn  Sn3  1  0.61850303  0.53587562  0.35886115  1
  Sn  Sn4  1  0.76502025  0.22103183  0.65934604  1
  Sn  Sn5  1  0.08803336  0.78477806  0.30258894  1
  Sn  Sn6  1  0.25186372  0.75413704  0.62849110  1
  Sn  Sn7  1  0.56914943  0.00041497  0.25812209  1
  Sn  Sn8  1  0.35326123  0.51880634  0.83137000  1
  Sn  Sn9  1  0.97125572  0.39707139  0.06559793  1
  Pd  Pd10  1  0.49565896  0.22925913  0.12522161  1
  Pd  Pd11  1  0.49627808  0.64614040  0.12480158  1
  Pd  Pd12  1  0.77012008  0.56296760  0.65834981  1
  Pd  Pd13  1  0.69731700  0.88308179  0.51951164  1
