# generated using pymatgen
data_Ce2Al3Fe
_symmetry_space_group_name_H-M   'P 1'
_cell_length_a   5.12137699
_cell_length_b   5.22271013
_cell_length_c   5.50219584
_cell_angle_alpha   65.44899750
_cell_angle_beta   74.46797180
_cell_angle_gamma   76.09064484
_symmetry_Int_Tables_number   1
_chemical_formula_structural   Ce2Al3Fe
_chemical_formula_sum   'Ce2 Al3 Fe1'
_cell_volume   127.56819460
_cell_formula_units_Z   1
loop_
 _symmetry_equiv_pos_site_id
 _symmetry_equiv_pos_as_xyz
  1  'x, y, z'
loop_
 _atom_site_type_symbol
 _atom_site_label
 _atom_site_symmetry_multiplicity
 _atom_site_fract_x
 _atom_site_fract_y
 _atom_site_fract_z
 _atom_site_occupancy
  Ce  Ce0  1  0.62833464  0.07234884  0.92736804  1
  Ce  Ce1  1  0.12783569  0.57224280  0.92727309  1
  Al  Al2  1  0.12842265  0.57220685  0.42808175  1
  Al  Al3  1  0.12769577  0.07186188  0.42763147  1
  Al  Al4  1  0.62743205  0.07328706  0.42696643  1
  Fe  Fe5  1  0.62816811  0.57228953  0.42684409  1
