# generated using pymatgen
data_Ce2Ge3Rh
_symmetry_space_group_name_H-M   'P 1'
_cell_length_a   4.10158062
_cell_length_b   4.26305199
_cell_length_c   8.06049633
_cell_angle_alpha   105.53407288
_cell_angle_beta   105.05072021
_cell_angle_gamma   90.19773102
_symmetry_Int_Tables_number   1
_chemical_formula_structural   Ce2Ge3Rh
_chemical_formula_sum   'Ce2 Ge3 Rh1'
_cell_volume   130.72913830
_cell_formula_units_Z   1
loop_
 _symmetry_equiv_pos_site_id
 _symmetry_equiv_pos_as_xyz
  1  'x, y, z'
loop_
 _atom_site_type_symbol
 _atom_site_label
 _atom_site_symmetry_multiplicity
 _atom_site_fract_x
 _atom_site_fract_y
 _atom_site_fract_z
 _atom_site_occupancy
  Ce  Ce0  1  0.41260338  0.55772287  0.62054735  1
  Ce  Ce1  1  0.16499308  0.80760217  0.12315967  1
  Ge  Ge2  1  0.58703446  0.23168048  0.96989942  1
  Ge  Ge3  1  0.82487053  0.96946269  0.44813687  1
  Ge  Ge4  1  0.99295783  0.13780555  0.78270656  1
  Rh  Rh5  1  0.75026560  0.39374802  0.29343864  1
