# generated using pymatgen
data_Ce2Si3Ni
_symmetry_space_group_name_H-M   'P 1'
_cell_length_a   4.05333662
_cell_length_b   4.04863834
_cell_length_c   8.02635384
_cell_angle_alpha   89.88707733
_cell_angle_beta   89.77313995
_cell_angle_gamma   120.83517456
_symmetry_Int_Tables_number   1
_chemical_formula_structural   Ce2Si3Ni
_chemical_formula_sum   'Ce2 Si3 Ni1'
_cell_volume   113.09559258
_cell_formula_units_Z   1
loop_
 _symmetry_equiv_pos_site_id
 _symmetry_equiv_pos_as_xyz
  1  'x, y, z'
loop_
 _atom_site_type_symbol
 _atom_site_label
 _atom_site_symmetry_multiplicity
 _atom_site_fract_x
 _atom_site_fract_y
 _atom_site_fract_z
 _atom_site_occupancy
  Ce  Ce0  1  0.92889977  0.51933026  0.79405224  1
  Ce  Ce1  1  0.92870975  0.51936644  0.27951661  1
  Si  Si2  1  0.26216763  0.18587352  0.53650099  1
  Si  Si3  1  0.26201606  0.18604003  0.03700768  1
  Si  Si4  1  0.59507698  0.85304332  0.53686363  1
  Ni  Ni5  1  0.59499311  0.85232443  0.03703689  1
