# generated using pymatgen
data_Ce3SbAs2
_symmetry_space_group_name_H-M   'P 1'
_cell_length_a   4.22786045
_cell_length_b   4.21857405
_cell_length_c   9.60774326
_cell_angle_alpha   102.58287811
_cell_angle_beta   102.66564178
_cell_angle_gamma   90.12891388
_symmetry_Int_Tables_number   1
_chemical_formula_structural   Ce3SbAs2
_chemical_formula_sum   'Ce3 Sb1 As2'
_cell_volume   162.94866963
_cell_formula_units_Z   1
loop_
 _symmetry_equiv_pos_site_id
 _symmetry_equiv_pos_as_xyz
  1  'x, y, z'
loop_
 _atom_site_type_symbol
 _atom_site_label
 _atom_site_symmetry_multiplicity
 _atom_site_fract_x
 _atom_site_fract_y
 _atom_site_fract_z
 _atom_site_occupancy
  Ce  Ce0  1  0.79040790  0.02436725  0.30558279  1
  Ce  Ce1  1  0.13520008  0.37274301  0.99823892  1
  Ce  Ce2  1  0.46279806  0.70190966  0.65432793  1
  Sb  Sb3  1  0.96170175  0.19907705  0.65491802  1
  As  As4  1  0.62436134  0.86473686  0.98112935  1
  As  As5  1  0.29554862  0.53387940  0.32394743  1
