# generated using pymatgen
data_Ce4SnO10
_symmetry_space_group_name_H-M   'P 1'
_cell_length_a   5.49167585
_cell_length_b   6.65114594
_cell_length_c   6.76581478
_cell_angle_alpha   79.37821198
_cell_angle_beta   66.13581085
_cell_angle_gamma   65.68724823
_symmetry_Int_Tables_number   1
_chemical_formula_structural   Ce4SnO10
_chemical_formula_sum   'Ce4 Sn1 O10'
_cell_volume   205.90971705
_cell_formula_units_Z   1
loop_
 _symmetry_equiv_pos_site_id
 _symmetry_equiv_pos_as_xyz
  1  'x, y, z'
loop_
 _atom_site_type_symbol
 _atom_site_label
 _atom_site_symmetry_multiplicity
 _atom_site_fract_x
 _atom_site_fract_y
 _atom_site_fract_z
 _atom_site_occupancy
  Ce  Ce0  1  0.85778791  0.93646282  0.97788703  1
  Ce  Ce1  1  0.65564293  0.53764898  0.78088295  1
  Ce  Ce2  1  0.05860520  0.33261389  0.17943136  1
  Ce  Ce3  1  0.25443250  0.73769331  0.37770876  1
  Sn  Sn4  1  0.46236366  0.13377595  0.57747036  1
  O  O5  1  0.99624544  0.23665853  0.88283581  1
  O  O6  1  0.11755505  0.42391783  0.48903400  1
  O  O7  1  0.20346081  0.63238710  0.07985901  1
  O  O8  1  0.90431947  0.03585187  0.27999941  1
  O  O9  1  0.79060793  0.85317624  0.67155689  1
  O  O10  1  0.70591694  0.63337487  0.08071020  1
  O  O11  1  0.30239454  0.85385531  0.67328405  1
  O  O12  1  0.40997490  0.03577914  0.27960166  1
  O  O13  1  0.60322070  0.42352843  0.48783892  1
  O  O14  1  0.49835303  0.23605412  0.88233232  1
