# generated using pymatgen
data_CeAg2
_symmetry_space_group_name_H-M   'P 1'
_cell_length_a   4.96358967
_cell_length_b   5.94814157
_cell_length_c   5.90610456
_cell_angle_alpha   67.54765320
_cell_angle_beta   64.92578125
_cell_angle_gamma   65.38993073
_symmetry_Int_Tables_number   1
_chemical_formula_structural   CeAg2
_chemical_formula_sum   'Ce2 Ag4'
_cell_volume   139.05301332
_cell_formula_units_Z   2
loop_
 _symmetry_equiv_pos_site_id
 _symmetry_equiv_pos_as_xyz
  1  'x, y, z'
loop_
 _atom_site_type_symbol
 _atom_site_label
 _atom_site_symmetry_multiplicity
 _atom_site_fract_x
 _atom_site_fract_y
 _atom_site_fract_z
 _atom_site_occupancy
  Ce  Ce0  1  0.24593161  0.92317373  0.17263584  1
  Ce  Ce1  1  0.24371910  0.43460950  0.67463440  1
  Ag  Ag2  1  0.57818902  0.34548876  0.08838201  1
  Ag  Ag3  1  0.90986454  0.51457465  0.25374281  1
  Ag  Ag4  1  0.57819569  0.84788108  0.58812147  1
  Ag  Ag5  1  0.91071159  0.01745347  0.75276631  1
