# generated using pymatgen
data_CeAl4Co
_symmetry_space_group_name_H-M   'P 1'
_cell_length_a   4.17606115
_cell_length_b   7.08621454
_cell_length_c   7.99511194
_cell_angle_alpha   116.00244141
_cell_angle_beta   90.09428406
_cell_angle_gamma   90.07266235
_symmetry_Int_Tables_number   1
_chemical_formula_structural   CeAl4Co
_chemical_formula_sum   'Ce2 Al8 Co2'
_cell_volume   212.64501401
_cell_formula_units_Z   2
loop_
 _symmetry_equiv_pos_site_id
 _symmetry_equiv_pos_as_xyz
  1  'x, y, z'
loop_
 _atom_site_type_symbol
 _atom_site_label
 _atom_site_symmetry_multiplicity
 _atom_site_fract_x
 _atom_site_fract_y
 _atom_site_fract_z
 _atom_site_occupancy
  Ce  Ce0  1  0.21868786  0.14025946  0.99265444  1
  Ce  Ce1  1  0.71908915  0.64103204  0.33923978  1
  Al  Al2  1  0.21855132  0.78342134  0.63135093  1
  Al  Al3  1  0.71933740  0.07389679  0.66272926  1
  Al  Al4  1  0.71805829  0.44783205  0.94962358  1
  Al  Al5  1  0.71908319  0.07194093  0.28980047  1
  Al  Al6  1  0.21860807  0.34469238  0.40937141  1
  Al  Al7  1  0.71813977  0.76500225  0.86501098  1
  Al  Al8  1  0.21842018  0.44222432  0.76150566  1
  Al  Al9  1  0.21865821  0.78318542  0.13120915  1
  Co  Co10  1  0.71878397  0.39024660  0.59829080  1
  Co  Co11  1  0.21899945  0.05852706  0.49108809  1
