# generated using pymatgen
data_CeAlNi4
_symmetry_space_group_name_H-M   'P 1'
_cell_length_a   4.00009489
_cell_length_b   4.99947739
_cell_length_c   4.97988796
_cell_angle_alpha   119.54900360
_cell_angle_beta   89.97645569
_cell_angle_gamma   90.25532532
_symmetry_Int_Tables_number   1
_chemical_formula_structural   CeAlNi4
_chemical_formula_sum   'Ce1 Al1 Ni4'
_cell_volume   86.63545507
_cell_formula_units_Z   1
loop_
 _symmetry_equiv_pos_site_id
 _symmetry_equiv_pos_as_xyz
  1  'x, y, z'
loop_
 _atom_site_type_symbol
 _atom_site_label
 _atom_site_symmetry_multiplicity
 _atom_site_fract_x
 _atom_site_fract_y
 _atom_site_fract_z
 _atom_site_occupancy
  Ce  Ce0  1  0.87308502  0.60882056  0.86282408  1
  Al  Al1  1  0.87346745  0.27535367  0.19725363  1
  Ni  Ni2  1  0.87314540  0.94358671  0.53011173  1
  Ni  Ni3  1  0.37327138  0.10796653  0.36416733  1
  Ni  Ni4  1  0.37323391  0.10764536  0.86232281  1
  Ni  Ni5  1  0.37304047  0.60977596  0.36404258  1
