# generated using pymatgen
data_CeAsS
_symmetry_space_group_name_H-M   'P 1'
_cell_length_a   3.97120595
_cell_length_b   3.96994495
_cell_length_c   8.34544373
_cell_angle_alpha   89.85002136
_cell_angle_beta   89.98268890
_cell_angle_gamma   90.04804230
_symmetry_Int_Tables_number   1
_chemical_formula_structural   CeAsS
_chemical_formula_sum   'Ce2 As2 S2'
_cell_volume   131.56933143
_cell_formula_units_Z   2
loop_
 _symmetry_equiv_pos_site_id
 _symmetry_equiv_pos_as_xyz
  1  'x, y, z'
loop_
 _atom_site_type_symbol
 _atom_site_label
 _atom_site_symmetry_multiplicity
 _atom_site_fract_x
 _atom_site_fract_y
 _atom_site_fract_z
 _atom_site_occupancy
  Ce  Ce0  1  0.83806497  0.46146557  0.73738617  1
  Ce  Ce1  1  0.33797780  0.96145308  0.16966203  1
  As  As2  1  0.83753228  0.96157396  0.45487702  1
  As  As3  1  0.33794385  0.46177503  0.45509765  1
  S  S4  1  0.33827952  0.96140712  0.81766927  1
  S  S5  1  0.83791232  0.46170387  0.08799403  1
