# generated using pymatgen
data_CeAu2
_symmetry_space_group_name_H-M   'P 1'
_cell_length_a   4.68533421
_cell_length_b   5.92150545
_cell_length_c   5.94009924
_cell_angle_alpha   71.56314087
_cell_angle_beta   66.40251923
_cell_angle_gamma   66.32521057
_symmetry_Int_Tables_number   1
_chemical_formula_structural   CeAu2
_chemical_formula_sum   'Ce2 Au4'
_cell_volume   135.91712011
_cell_formula_units_Z   2
loop_
 _symmetry_equiv_pos_site_id
 _symmetry_equiv_pos_as_xyz
  1  'x, y, z'
loop_
 _atom_site_type_symbol
 _atom_site_label
 _atom_site_symmetry_multiplicity
 _atom_site_fract_x
 _atom_site_fract_y
 _atom_site_fract_z
 _atom_site_occupancy
  Ce  Ce0  1  0.86383349  0.88991302  0.50159198  1
  Ce  Ce1  1  0.92281747  0.33081248  0.94334537  1
  Au  Au2  1  0.22976243  0.74344486  0.91413623  1
  Au  Au3  1  0.55705822  0.91337788  0.08750628  1
  Au  Au4  1  0.22952731  0.30963233  0.34839183  1
  Au  Au5  1  0.56008035  0.47355169  0.52123743  1
