# generated using pymatgen
data_CeB2Pt2C
_symmetry_space_group_name_H-M   'P 1'
_cell_length_a   3.83408451
_cell_length_b   3.82306767
_cell_length_c   6.01901865
_cell_angle_alpha   108.47655487
_cell_angle_beta   108.02841949
_cell_angle_gamma   89.91269684
_symmetry_Int_Tables_number   1
_chemical_formula_structural   CeB2Pt2C
_chemical_formula_sum   'Ce1 B2 Pt2 C1'
_cell_volume   79.11306881
_cell_formula_units_Z   1
loop_
 _symmetry_equiv_pos_site_id
 _symmetry_equiv_pos_as_xyz
  1  'x, y, z'
loop_
 _atom_site_type_symbol
 _atom_site_label
 _atom_site_symmetry_multiplicity
 _atom_site_fract_x
 _atom_site_fract_y
 _atom_site_fract_z
 _atom_site_occupancy
  Ce  Ce0  1  0.22816990  0.71983844  0.15826780  1
  B  B1  1  0.86362940  0.35464570  0.42693925  1
  B  B2  1  0.59383476  0.08619899  0.89116961  1
  Pt  Pt3  1  0.97770971  0.96927422  0.65785068  1
  Pt  Pt4  1  0.47737908  0.46910679  0.65800619  1
  C  C5  1  0.72784901  0.21895643  0.15829264  1
