# generated using pymatgen
data_CeBi2Au
_symmetry_space_group_name_H-M   'P 1'
_cell_length_a   4.77011013
_cell_length_b   4.78342581
_cell_length_c   9.66026211
_cell_angle_alpha   89.90567017
_cell_angle_beta   89.98332214
_cell_angle_gamma   90.17358398
_symmetry_Int_Tables_number   1
_chemical_formula_structural   CeBi2Au
_chemical_formula_sum   'Ce2 Bi4 Au2'
_cell_volume   220.42140062
_cell_formula_units_Z   2
loop_
 _symmetry_equiv_pos_site_id
 _symmetry_equiv_pos_as_xyz
  1  'x, y, z'
loop_
 _atom_site_type_symbol
 _atom_site_label
 _atom_site_symmetry_multiplicity
 _atom_site_fract_x
 _atom_site_fract_y
 _atom_site_fract_z
 _atom_site_occupancy
  Ce  Ce0  1  0.25689444  0.11238839  0.45911023  1
  Ce  Ce1  1  0.75708270  0.61264193  0.95882660  1
  Bi  Bi2  1  0.75712168  0.11289521  0.20910588  1
  Bi  Bi3  1  0.75653142  0.11255119  0.70938599  1
  Bi  Bi4  1  0.25633028  0.61247587  0.20946775  1
  Bi  Bi5  1  0.25686076  0.61260355  0.70938182  1
  Au  Au6  1  0.75684410  0.61262512  0.45920950  1
  Au  Au7  1  0.25709960  0.11284474  0.95912170  1
