# generated using pymatgen
data_CeFeSi
_symmetry_space_group_name_H-M   'P 1'
_cell_length_a   4.11606550
_cell_length_b   4.10807085
_cell_length_c   6.66028357
_cell_angle_alpha   89.97542572
_cell_angle_beta   89.93376160
_cell_angle_gamma   90.11586761
_symmetry_Int_Tables_number   1
_chemical_formula_structural   CeFeSi
_chemical_formula_sum   'Ce2 Fe2 Si2'
_cell_volume   112.61900961
_cell_formula_units_Z   2
loop_
 _symmetry_equiv_pos_site_id
 _symmetry_equiv_pos_as_xyz
  1  'x, y, z'
loop_
 _atom_site_type_symbol
 _atom_site_label
 _atom_site_symmetry_multiplicity
 _atom_site_fract_x
 _atom_site_fract_y
 _atom_site_fract_z
 _atom_site_occupancy
  Ce  Ce0  1  0.25381699  0.78635162  0.82290679  1
  Ce  Ce1  1  0.75397909  0.78605533  0.32440710  1
  Fe  Fe2  1  0.75365365  0.28618839  0.64305323  1
  Fe  Fe3  1  0.25362140  0.28610677  0.14245401  1
  Si  Si4  1  0.25340113  0.28649724  0.48793370  1
  Si  Si5  1  0.75330567  0.28645608  0.98957837  1
