# generated using pymatgen
data_CeGaCo
_symmetry_space_group_name_H-M   'P 1'
_cell_length_a   4.33067179
_cell_length_b   5.55912209
_cell_length_c   5.59393311
_cell_angle_alpha   78.53871918
_cell_angle_beta   67.20432281
_cell_angle_gamma   66.50975037
_symmetry_Int_Tables_number   1
_chemical_formula_structural   CeGaCo
_chemical_formula_sum   'Ce2 Ga2 Co2'
_cell_volume   113.70843637
_cell_formula_units_Z   2
loop_
 _symmetry_equiv_pos_site_id
 _symmetry_equiv_pos_as_xyz
  1  'x, y, z'
loop_
 _atom_site_type_symbol
 _atom_site_label
 _atom_site_symmetry_multiplicity
 _atom_site_fract_x
 _atom_site_fract_y
 _atom_site_fract_z
 _atom_site_occupancy
  Ce  Ce0  1  0.65042287  0.02143838  0.91102070  1
  Ce  Ce1  1  0.71667498  0.45420375  0.34735468  1
  Ga  Ga2  1  0.02155280  0.44548956  0.75438142  1
  Ga  Ga3  1  0.02176920  0.86198348  0.33230132  1
  Co  Co4  1  0.34969568  0.03203568  0.51337844  1
  Co  Co5  1  0.34937534  0.62074000  0.92678779  1
