# generated using pymatgen
data_CeGeAu
_symmetry_space_group_name_H-M   'P 1'
_cell_length_a   4.53731728
_cell_length_b   4.54132318
_cell_length_c   7.65768719
_cell_angle_alpha   89.99372864
_cell_angle_beta   89.79291534
_cell_angle_gamma   120.28997040
_symmetry_Int_Tables_number   1
_chemical_formula_structural   CeGeAu
_chemical_formula_sum   'Ce2 Ge2 Au2'
_cell_volume   136.24779345
_cell_formula_units_Z   2
loop_
 _symmetry_equiv_pos_site_id
 _symmetry_equiv_pos_as_xyz
  1  'x, y, z'
loop_
 _atom_site_type_symbol
 _atom_site_label
 _atom_site_symmetry_multiplicity
 _atom_site_fract_x
 _atom_site_fract_y
 _atom_site_fract_z
 _atom_site_occupancy
  Ce  Ce0  1  0.37175277  0.89645994  0.19587545  1
  Ce  Ce1  1  0.37224284  0.89642435  0.69626051  1
  Ge  Ge2  1  0.70555866  0.56270790  0.94637060  1
  Ge  Ge3  1  0.03885425  0.22958905  0.45607245  1
  Au  Au4  1  0.03883991  0.22947375  0.94518173  1
  Au  Au5  1  0.70513451  0.56307590  0.44484022  1
