# generated using pymatgen
data_CeHSe
_symmetry_space_group_name_H-M   'P 1'
_cell_length_a   4.18637466
_cell_length_b   4.17923498
_cell_length_c   7.97746468
_cell_angle_alpha   90.00341797
_cell_angle_beta   89.96885681
_cell_angle_gamma   119.83072662
_symmetry_Int_Tables_number   1
_chemical_formula_structural   CeHSe
_chemical_formula_sum   'Ce2 H2 Se2'
_cell_volume   121.07893296
_cell_formula_units_Z   2
loop_
 _symmetry_equiv_pos_site_id
 _symmetry_equiv_pos_as_xyz
  1  'x, y, z'
loop_
 _atom_site_type_symbol
 _atom_site_label
 _atom_site_symmetry_multiplicity
 _atom_site_fract_x
 _atom_site_fract_y
 _atom_site_fract_z
 _atom_site_occupancy
  Ce  Ce0  1  0.68312329  0.41498321  0.27083567  1
  Ce  Ce1  1  0.34958020  0.74732482  0.71227187  1
  H  H2  1  0.35167578  0.74528098  0.17172712  1
  H  H3  1  0.35185704  0.74403417  0.37314826  1
  Se  Se4  1  0.01647134  0.08226173  0.50908446  1
  Se  Se5  1  0.68354428  0.41327506  0.90370136  1
