# generated using pymatgen
data_CeIr2
_symmetry_space_group_name_H-M   'P 1'
_cell_length_a   5.39630413
_cell_length_b   5.39371157
_cell_length_c   5.39160967
_cell_angle_alpha   59.73146439
_cell_angle_beta   59.76652145
_cell_angle_gamma   59.64044952
_symmetry_Int_Tables_number   1
_chemical_formula_structural   CeIr2
_chemical_formula_sum   'Ce2 Ir4'
_cell_volume   110.24129295
_cell_formula_units_Z   2
loop_
 _symmetry_equiv_pos_site_id
 _symmetry_equiv_pos_as_xyz
  1  'x, y, z'
loop_
 _atom_site_type_symbol
 _atom_site_label
 _atom_site_symmetry_multiplicity
 _atom_site_fract_x
 _atom_site_fract_y
 _atom_site_fract_z
 _atom_site_occupancy
  Ce  Ce0  1  0.32832921  0.42645335  0.92964602  1
  Ce  Ce1  1  0.57750887  0.67572504  0.17975454  1
  Ir  Ir2  1  0.95262575  0.05032340  0.55406684  1
  Ir  Ir3  1  0.95242447  0.55166149  0.55417615  1
  Ir  Ir4  1  0.95250851  0.05063875  0.05433008  1
  Ir  Ir5  1  0.45186901  0.05076153  0.55409086  1
