# generated using pymatgen
data_CeRh3
_symmetry_space_group_name_H-M   'P 1'
_cell_length_a   4.07797480
_cell_length_b   4.06325293
_cell_length_c   4.08165932
_cell_angle_alpha   89.81150818
_cell_angle_beta   89.57523346
_cell_angle_gamma   89.93655396
_symmetry_Int_Tables_number   1
_chemical_formula_structural   CeRh3
_chemical_formula_sum   'Ce1 Rh3'
_cell_volume   67.63018995
_cell_formula_units_Z   1
loop_
 _symmetry_equiv_pos_site_id
 _symmetry_equiv_pos_as_xyz
  1  'x, y, z'
loop_
 _atom_site_type_symbol
 _atom_site_label
 _atom_site_symmetry_multiplicity
 _atom_site_fract_x
 _atom_site_fract_y
 _atom_site_fract_z
 _atom_site_occupancy
  Ce  Ce0  1  0.37161052  0.51984900  0.77575517  1
  Rh  Rh1  1  0.87170994  0.01990752  0.77594185  1
  Rh  Rh2  1  0.87189180  0.51992863  0.27557212  1
  Rh  Rh3  1  0.37164435  0.02012815  0.27544135  1
