# generated using pymatgen
data_CeScPd6
_symmetry_space_group_name_H-M   'P 1'
_cell_length_a   4.19819355
_cell_length_b   4.22695398
_cell_length_c   7.86773825
_cell_angle_alpha   89.88615417
_cell_angle_beta   90.00469208
_cell_angle_gamma   89.99837494
_symmetry_Int_Tables_number   1
_chemical_formula_structural   CeScPd6
_chemical_formula_sum   'Ce1 Sc1 Pd6'
_cell_volume   139.61723113
_cell_formula_units_Z   1
loop_
 _symmetry_equiv_pos_site_id
 _symmetry_equiv_pos_as_xyz
  1  'x, y, z'
loop_
 _atom_site_type_symbol
 _atom_site_label
 _atom_site_symmetry_multiplicity
 _atom_site_fract_x
 _atom_site_fract_y
 _atom_site_fract_z
 _atom_site_occupancy
  Ce  Ce0  1  0.54717076  0.37007490  0.23069018  1
  Sc  Sc1  1  0.04692347  0.87027597  0.73058391  1
  Pd  Pd2  1  0.54733175  0.87035638  0.96990687  1
  Pd  Pd3  1  0.04734498  0.37056905  0.96927881  1
  Pd  Pd4  1  0.04733962  0.37051859  0.49055076  1
  Pd  Pd5  1  0.54752314  0.87091243  0.49050429  1
  Pd  Pd6  1  0.54719013  0.37039152  0.73059422  1
  Pd  Pd7  1  0.04762384  0.87046540  0.23057680  1
