# generated using pymatgen
data_Co(PdSe)2
_symmetry_space_group_name_H-M   'P 1'
_cell_length_a   3.84782887
_cell_length_b   6.87525654
_cell_length_c   7.02171230
_cell_angle_alpha   118.49755096
_cell_angle_beta   105.93968964
_cell_angle_gamma   89.99843597
_symmetry_Int_Tables_number   1
_chemical_formula_structural   Co(PdSe)2
_chemical_formula_sum   'Co2 Pd4 Se4'
_cell_volume   155.07666414
_cell_formula_units_Z   2
loop_
 _symmetry_equiv_pos_site_id
 _symmetry_equiv_pos_as_xyz
  1  'x, y, z'
loop_
 _atom_site_type_symbol
 _atom_site_label
 _atom_site_symmetry_multiplicity
 _atom_site_fract_x
 _atom_site_fract_y
 _atom_site_fract_z
 _atom_site_occupancy
  Co  Co0  1  0.44753033  0.61244476  0.76521629  1
  Co  Co1  1  0.34614703  0.95214075  0.55900890  1
  Pd  Pd2  1  0.93053341  0.27854410  0.72715127  1
  Pd  Pd3  1  0.98528749  0.93296075  0.85323226  1
  Pd  Pd4  1  0.67832047  0.94494486  0.23144664  1
  Pd  Pd5  1  0.17869435  0.45345896  0.22779183  1
  Se  Se6  1  0.06498294  0.67789578  0.00324726  1
  Se  Se7  1  0.79049659  0.70956200  0.45701718  1
  Se  Se8  1  0.29303917  0.24589199  0.45904404  1
  Se  Se9  1  0.56454980  0.20393641  0.00258753  1
