# generated using pymatgen
data_Co2P
_symmetry_space_group_name_H-M   'P 1'
_cell_length_a   3.48614550
_cell_length_b   5.83324528
_cell_length_c   6.59318256
_cell_angle_alpha   89.82369232
_cell_angle_beta   90.07453918
_cell_angle_gamma   89.87062073
_symmetry_Int_Tables_number   1
_chemical_formula_structural   Co2P
_chemical_formula_sum   'Co8 P4'
_cell_volume   134.07484804
_cell_formula_units_Z   4
loop_
 _symmetry_equiv_pos_site_id
 _symmetry_equiv_pos_as_xyz
  1  'x, y, z'
loop_
 _atom_site_type_symbol
 _atom_site_label
 _atom_site_symmetry_multiplicity
 _atom_site_fract_x
 _atom_site_fract_y
 _atom_site_fract_z
 _atom_site_occupancy
  Co  Co0  1  0.92737234  0.86415780  0.08153946  1
  Co  Co1  1  0.92700803  0.97875786  0.67959970  1
  Co  Co2  1  0.42762572  0.30371788  0.58141816  1
  Co  Co3  1  0.92780793  0.36758044  0.91371590  1
  Co  Co4  1  0.42737320  0.69588137  0.81204426  1
  Co  Co5  1  0.42735773  0.80322665  0.41038519  1
  Co  Co6  1  0.42766738  0.19535001  0.17963308  1
  Co  Co7  1  0.92792457  0.47724921  0.31228200  1
  P  P8  1  0.42746454  0.08386355  0.87054962  1
  P  P9  1  0.92809540  0.58558011  0.62201762  1
  P  P10  1  0.42804474  0.58095390  0.12202302  1
  P  P11  1  0.92789769  0.08236083  0.37062976  1
