# generated using pymatgen
data_Co4(CuO4)3
_symmetry_space_group_name_H-M   'P 1'
_cell_length_a   5.44033194
_cell_length_b   5.52720690
_cell_length_c   6.90881300
_cell_angle_alpha   75.52893829
_cell_angle_beta   74.33255768
_cell_angle_gamma   88.27351379
_symmetry_Int_Tables_number   1
_chemical_formula_structural   Co4(CuO4)3
_chemical_formula_sum   'Co4 Cu3 O12'
_cell_volume   193.52650557
_cell_formula_units_Z   1
loop_
 _symmetry_equiv_pos_site_id
 _symmetry_equiv_pos_as_xyz
  1  'x, y, z'
loop_
 _atom_site_type_symbol
 _atom_site_label
 _atom_site_symmetry_multiplicity
 _atom_site_fract_x
 _atom_site_fract_y
 _atom_site_fract_z
 _atom_site_occupancy
  Co  Co0  1  0.15510771  0.03206233  0.46690056  1
  Co  Co1  1  0.65854567  0.53465521  0.96619922  1
  Co  Co2  1  0.15287723  0.02785164  0.96714300  1
  Co  Co3  1  0.49625087  0.36403036  0.63647979  1
  Cu  Cu4  1  0.81962746  0.69699073  0.29347068  1
  Cu  Cu5  1  0.50361472  0.86227942  0.64651293  1
  Cu  Cu6  1  0.81115925  0.19859511  0.28588277  1
  O  O7  1  0.55700696  0.94501376  0.33521482  1
  O  O8  1  0.05624865  0.39951986  0.32421520  1
  O  O9  1  0.27073932  0.65495688  0.60834140  1
  O  O10  1  0.05391812  0.94364965  0.27842906  1
  O  O11  1  0.41317236  0.78109008  0.94802189  1
  O  O12  1  0.76259816  0.10673380  0.60315710  1
  O  O13  1  0.59084219  0.44941241  0.30682775  1
  O  O14  1  0.41052890  0.28426963  0.93898726  1
  O  O15  1  0.90085280  0.77639478  0.98869461  1
  O  O16  1  0.72228795  0.58967191  0.65354943  1
  O  O17  1  0.89861578  0.27894586  0.98895144  1
  O  O18  1  0.26391044  0.12469460  0.65489221  1
