# generated using pymatgen
data_CoCl2
_symmetry_space_group_name_H-M   'P 1'
_cell_length_a   3.63823748
_cell_length_b   3.64856839
_cell_length_c   13.75583458
_cell_angle_alpha   83.35469055
_cell_angle_beta   82.65733337
_cell_angle_gamma   59.38770676
_symmetry_Int_Tables_number   1
_chemical_formula_structural   CoCl2
_chemical_formula_sum   'Co1 Cl2'
_cell_volume   155.58817085
_cell_formula_units_Z   1
loop_
 _symmetry_equiv_pos_site_id
 _symmetry_equiv_pos_as_xyz
  1  'x, y, z'
loop_
 _atom_site_type_symbol
 _atom_site_label
 _atom_site_symmetry_multiplicity
 _atom_site_fract_x
 _atom_site_fract_y
 _atom_site_fract_z
 _atom_site_occupancy
  Co  Co0  1  0.98663241  0.38665682  0.68063539  1
  Cl  Cl1  1  0.61686683  0.03737879  0.77552480  1
  Cl  Cl2  1  0.35546035  0.73560739  0.58615452  1
