# generated using pymatgen
data_CoF3
_symmetry_space_group_name_H-M   'P 1'
_cell_length_a   5.22880268
_cell_length_b   5.32436037
_cell_length_c   7.53416586
_cell_angle_alpha   90.45333862
_cell_angle_beta   90.17600250
_cell_angle_gamma   90.13997650
_symmetry_Int_Tables_number   1
_chemical_formula_structural   CoF3
_chemical_formula_sum   'Co4 F12'
_cell_volume   209.74320824
_cell_formula_units_Z   4
loop_
 _symmetry_equiv_pos_site_id
 _symmetry_equiv_pos_as_xyz
  1  'x, y, z'
loop_
 _atom_site_type_symbol
 _atom_site_label
 _atom_site_symmetry_multiplicity
 _atom_site_fract_x
 _atom_site_fract_y
 _atom_site_fract_z
 _atom_site_occupancy
  Co  Co0  1  0.74953395  0.28081003  0.97645879  1
  Co  Co1  1  0.74999958  0.28194332  0.47508872  1
  Co  Co2  1  0.25106591  0.78115642  0.47524911  1
  Co  Co3  1  0.25033298  0.78126705  0.97602201  1
  F  F4  1  0.45254740  0.47916022  0.92390358  1
  F  F5  1  0.95441747  0.57974130  0.42407271  1
  F  F6  1  0.45548233  0.48733389  0.52561939  1
  F  F7  1  0.05150090  0.07959177  0.02716984  1
  F  F8  1  0.95482016  0.57935631  0.02579507  1
  F  F9  1  0.85478652  0.30005440  0.72454965  1
  F  F10  1  0.64781457  0.25918958  0.22546214  1
  F  F11  1  0.55274457  0.98642719  0.52738929  1
  F  F12  1  0.35482243  0.75879341  0.22460115  1
  F  F13  1  0.14972842  0.80017662  0.72494072  1
  F  F14  1  0.55088639  0.97723132  0.92336702  1
  F  F15  1  0.05081667  0.07956530  0.42343038  1
