# generated using pymatgen
data_CoNiTe4
_symmetry_space_group_name_H-M   'P 1'
_cell_length_a   6.36232996
_cell_length_b   6.35290051
_cell_length_c   6.38591766
_cell_angle_alpha   89.87710571
_cell_angle_beta   89.90510559
_cell_angle_gamma   90.06172180
_symmetry_Int_Tables_number   1
_chemical_formula_structural   CoNiTe4
_chemical_formula_sum   'Co2 Ni2 Te8'
_cell_volume   258.11289900
_cell_formula_units_Z   2
loop_
 _symmetry_equiv_pos_site_id
 _symmetry_equiv_pos_as_xyz
  1  'x, y, z'
loop_
 _atom_site_type_symbol
 _atom_site_label
 _atom_site_symmetry_multiplicity
 _atom_site_fract_x
 _atom_site_fract_y
 _atom_site_fract_z
 _atom_site_occupancy
  Co  Co0  1  0.53182310  0.31139168  0.05926628  1
  Co  Co1  1  0.03158415  0.31074256  0.55999780  1
  Ni  Ni2  1  0.53120887  0.81022954  0.55938023  1
  Ni  Ni3  1  0.03177338  0.81115878  0.05967405  1
  Te  Te4  1  0.39465544  0.44377020  0.42489547  1
  Te  Te5  1  0.39553404  0.67283034  0.92577237  1
  Te  Te6  1  0.66753989  0.94595313  0.19489484  1
  Te  Te7  1  0.16915567  0.17623585  0.92557162  1
  Te  Te8  1  0.89451420  0.44407484  0.19522767  1
  Te  Te9  1  0.16777061  0.94397473  0.42563209  1
  Te  Te10  1  0.66842222  0.17521119  0.69516742  1
  Te  Te11  1  0.89603478  0.67435271  0.69481033  1
