# generated using pymatgen
data_CoSi4Ni
_symmetry_space_group_name_H-M   'P 1'
_cell_length_a   3.17586112
_cell_length_b   3.13188267
_cell_length_c   7.38878822
_cell_angle_alpha   90.09033203
_cell_angle_beta   89.98944855
_cell_angle_gamma   90.23336029
_symmetry_Int_Tables_number   1
_chemical_formula_structural   CoSi4Ni
_chemical_formula_sum   'Co1 Si4 Ni1'
_cell_volume   73.49132139
_cell_formula_units_Z   1
loop_
 _symmetry_equiv_pos_site_id
 _symmetry_equiv_pos_as_xyz
  1  'x, y, z'
loop_
 _atom_site_type_symbol
 _atom_site_label
 _atom_site_symmetry_multiplicity
 _atom_site_fract_x
 _atom_site_fract_y
 _atom_site_fract_z
 _atom_site_occupancy
  Co  Co0  1  0.33872664  0.98943251  0.59995741  1
  Si  Si1  1  0.33915263  0.98932576  0.26741382  1
  Si  Si2  1  0.33880898  0.98992753  0.93594998  1
  Si  Si3  1  0.83916110  0.48951092  0.75929630  1
  Si  Si4  1  0.83887649  0.49007317  0.43698856  1
  Ni  Ni5  1  0.83905262  0.48977327  0.09922647  1
