# generated using pymatgen
data_Cr2FeSe4
_symmetry_space_group_name_H-M   'P 1'
_cell_length_a   3.58148241
_cell_length_b   6.38049221
_cell_length_c   6.79615831
_cell_angle_alpha   117.18987274
_cell_angle_beta   105.43523407
_cell_angle_gamma   89.79745483
_symmetry_Int_Tables_number   1
_chemical_formula_structural   Cr2FeSe4
_chemical_formula_sum   'Cr2 Fe1 Se4'
_cell_volume   131.89051039
_cell_formula_units_Z   1
loop_
 _symmetry_equiv_pos_site_id
 _symmetry_equiv_pos_as_xyz
  1  'x, y, z'
loop_
 _atom_site_type_symbol
 _atom_site_label
 _atom_site_symmetry_multiplicity
 _atom_site_fract_x
 _atom_site_fract_y
 _atom_site_fract_z
 _atom_site_occupancy
  Cr  Cr0  1  0.59498566  0.98726672  0.48383269  1
  Cr  Cr1  1  0.34365040  0.73216474  0.97701186  1
  Fe  Fe2  1  0.08925746  0.47306824  0.47656336  1
  Se  Se3  1  0.71767825  0.43521261  0.72383839  1
  Se  Se4  1  0.20989998  0.92515856  0.71577555  1
  Se  Se5  1  0.96879148  0.02465543  0.22938463  1
  Se  Se6  1  0.46480322  0.52178311  0.22724283  1
