# generated using pymatgen
data_Cr2NiS4
_symmetry_space_group_name_H-M   'P 1'
_cell_length_a   3.36887431
_cell_length_b   5.82886410
_cell_length_c   6.18691349
_cell_angle_alpha   108.32781982
_cell_angle_beta   106.10319519
_cell_angle_gamma   89.77716064
_symmetry_Int_Tables_number   1
_chemical_formula_structural   Cr2NiS4
_chemical_formula_sum   'Cr2 Ni1 S4'
_cell_volume   110.33926026
_cell_formula_units_Z   1
loop_
 _symmetry_equiv_pos_site_id
 _symmetry_equiv_pos_as_xyz
  1  'x, y, z'
loop_
 _atom_site_type_symbol
 _atom_site_label
 _atom_site_symmetry_multiplicity
 _atom_site_fract_x
 _atom_site_fract_y
 _atom_site_fract_z
 _atom_site_occupancy
  Cr  Cr0  1  0.60074109  0.82342148  0.58143115  1
  Cr  Cr1  1  0.34663895  0.54351258  0.07642689  1
  Ni  Ni2  1  0.34808877  0.05375658  0.08237668  1
  S  S3  1  0.95451409  0.85490888  0.29198742  1
  S  S4  1  0.20685899  0.71547723  0.79134536  1
  S  S5  1  0.75208515  0.23080823  0.89156681  1
  S  S6  1  0.50081706  0.39408207  0.38108853  1
