# generated using pymatgen
data_CrFeAs
_symmetry_space_group_name_H-M   'P 1'
_cell_length_a   3.66836619
_cell_length_b   6.18984175
_cell_length_c   6.20849895
_cell_angle_alpha   119.88055420
_cell_angle_beta   90.07423401
_cell_angle_gamma   90.00263214
_symmetry_Int_Tables_number   1
_chemical_formula_structural   CrFeAs
_chemical_formula_sum   'Cr3 Fe3 As3'
_cell_volume   122.23355302
_cell_formula_units_Z   3
loop_
 _symmetry_equiv_pos_site_id
 _symmetry_equiv_pos_as_xyz
  1  'x, y, z'
loop_
 _atom_site_type_symbol
 _atom_site_label
 _atom_site_symmetry_multiplicity
 _atom_site_fract_x
 _atom_site_fract_y
 _atom_site_fract_z
 _atom_site_occupancy
  Cr  Cr0  1  0.61710292  0.52060455  0.62400478  1
  Cr  Cr1  1  0.61661142  0.35411263  0.04266552  1
  Cr  Cr2  1  0.61682636  0.93617690  0.20876893  1
  Fe  Fe3  1  0.11682865  0.18622041  0.62463117  1
  Fe  Fe4  1  0.11672211  0.93756962  0.87417907  1
  Fe  Fe5  1  0.11702064  0.68804753  0.37705722  1
  As  As6  1  0.11651505  0.26997361  0.29074487  1
  As  As7  1  0.11694949  0.60268140  0.95643502  1
  As  As8  1  0.61708939  0.93744850  0.62438858  1
