# generated using pymatgen
data_Cs2LiYBr6
_symmetry_space_group_name_H-M   'P 1'
_cell_length_a   8.02352047
_cell_length_b   8.02507591
_cell_length_c   8.02483749
_cell_angle_alpha   59.84148026
_cell_angle_beta   59.80928802
_cell_angle_gamma   59.89737320
_symmetry_Int_Tables_number   1
_chemical_formula_structural   Cs2LiYBr6
_chemical_formula_sum   'Cs2 Li1 Y1 Br6'
_cell_volume   364.12274784
_cell_formula_units_Z   1
loop_
 _symmetry_equiv_pos_site_id
 _symmetry_equiv_pos_as_xyz
  1  'x, y, z'
loop_
 _atom_site_type_symbol
 _atom_site_label
 _atom_site_symmetry_multiplicity
 _atom_site_fract_x
 _atom_site_fract_y
 _atom_site_fract_z
 _atom_site_occupancy
  Cs  Cs0  1  0.31778204  0.57184696  0.10015420  1
  Cs  Cs1  1  0.81755513  0.07238926  0.60019493  1
  Li  Li2  1  0.06742390  0.32176211  0.85099643  1
  Y  Y3  1  0.56771231  0.82190955  0.35135275  1
  Br  Br4  1  0.81706154  0.57262570  0.10083702  1
  Br  Br5  1  0.31749329  0.07270335  0.10088926  1
  Br  Br6  1  0.81687379  0.07239785  0.10088131  1
  Br  Br7  1  0.31744188  0.07323174  0.60078961  1
  Br  Br8  1  0.81719291  0.57304519  0.60051352  1
  Br  Br9  1  0.31746799  0.57213217  0.60094911  1
