# generated using pymatgen
data_Cs2LiSbCl6
_symmetry_space_group_name_H-M   'P 1'
_cell_length_a   7.49900341
_cell_length_b   7.50150347
_cell_length_c   7.50517559
_cell_angle_alpha   59.66969299
_cell_angle_beta   59.64376450
_cell_angle_gamma   59.75345612
_symmetry_Int_Tables_number   1
_chemical_formula_structural   Cs2LiSbCl6
_chemical_formula_sum   'Cs2 Li1 Sb1 Cl6'
_cell_volume   296.42679758
_cell_formula_units_Z   1
loop_
 _symmetry_equiv_pos_site_id
 _symmetry_equiv_pos_as_xyz
  1  'x, y, z'
loop_
 _atom_site_type_symbol
 _atom_site_label
 _atom_site_symmetry_multiplicity
 _atom_site_fract_x
 _atom_site_fract_y
 _atom_site_fract_z
 _atom_site_occupancy
  Cs  Cs0  1  0.60786283  0.07737345  0.80603653  1
  Cs  Cs1  1  0.10808152  0.57845348  0.30545941  1
  Li  Li2  1  0.85735798  0.32771733  0.05637122  1
  Sb  Sb3  1  0.35818809  0.82779080  0.55605799  1
  Cl  Cl4  1  0.10652990  0.07838842  0.80629408  1
  Cl  Cl5  1  0.60812032  0.07822049  0.30564594  1
  Cl  Cl6  1  0.10702577  0.57910758  0.80536050  1
  Cl  Cl7  1  0.60749668  0.57880074  0.80627006  1
  Cl  Cl8  1  0.10699140  0.07857185  0.30507752  1
  Cl  Cl9  1  0.60772669  0.57939559  0.30549738  1
