# generated using pymatgen
data_Cs2NaIrF6
_symmetry_space_group_name_H-M   'P 1'
_cell_length_a   5.57693529
_cell_length_b   6.36603880
_cell_length_c   6.38024330
_cell_angle_alpha   119.77322388
_cell_angle_beta   90.61408234
_cell_angle_gamma   90.05471802
_symmetry_Int_Tables_number   1
_chemical_formula_structural   Cs2NaIrF6
_chemical_formula_sum   'Cs2 Na1 Ir1 F6'
_cell_volume   196.60038073
_cell_formula_units_Z   1
loop_
 _symmetry_equiv_pos_site_id
 _symmetry_equiv_pos_as_xyz
  1  'x, y, z'
loop_
 _atom_site_type_symbol
 _atom_site_label
 _atom_site_symmetry_multiplicity
 _atom_site_fract_x
 _atom_site_fract_y
 _atom_site_fract_z
 _atom_site_occupancy
  Cs  Cs0  1  0.79229760  0.88496858  0.15401658  1
  Cs  Cs1  1  0.31940904  0.54930162  0.47607616  1
  Na  Na2  1  0.57585049  0.21909525  0.81520599  1
  Ir  Ir3  1  0.07609029  0.21892756  0.81491345  1
  F  F4  1  0.29506940  0.06847086  0.96561223  1
  F  F5  1  0.29439157  0.06835459  0.51242268  1
  F  F6  1  0.85539651  0.92018002  0.66897511  1
  F  F7  1  0.85431230  0.36654335  0.11597372  1
  F  F8  1  0.85506976  0.36797959  0.66901708  1
  F  F9  1  0.29469752  0.51698327  0.96432352  1
