# generated using pymatgen
data_Cs2RbEuCl6
_symmetry_space_group_name_H-M   'P 1'
_cell_length_a   8.29398346
_cell_length_b   8.30703831
_cell_length_c   8.29533291
_cell_angle_alpha   59.89700699
_cell_angle_beta   59.84336472
_cell_angle_gamma   59.97504807
_symmetry_Int_Tables_number   1
_chemical_formula_structural   Cs2RbEuCl6
_chemical_formula_sum   'Cs2 Rb1 Eu1 Cl6'
_cell_volume   403.26583488
_cell_formula_units_Z   1
loop_
 _symmetry_equiv_pos_site_id
 _symmetry_equiv_pos_as_xyz
  1  'x, y, z'
loop_
 _atom_site_type_symbol
 _atom_site_label
 _atom_site_symmetry_multiplicity
 _atom_site_fract_x
 _atom_site_fract_y
 _atom_site_fract_z
 _atom_site_occupancy
  Cs  Cs0  1  0.13722853  0.52193904  0.46711567  1
  Cs  Cs1  1  0.63660252  0.02296472  0.96854407  1
  Rb  Rb2  1  0.88752633  0.27253592  0.21676745  1
  Eu  Eu3  1  0.38763618  0.77274352  0.71868145  1
  Cl  Cl4  1  0.15602273  0.00339282  0.48616013  1
  Cl  Cl5  1  0.61623406  0.54182017  0.94870281  1
  Cl  Cl6  1  0.15628281  0.54161471  0.94852185  1
  Cl  Cl7  1  0.61620390  0.54106438  0.48615828  1
  Cl  Cl8  1  0.15676244  0.00350547  0.94838959  1
  Cl  Cl9  1  0.61612821  0.00374370  0.48579890  1
