# generated using pymatgen
data_Cs2RbErCl6
_symmetry_space_group_name_H-M   'P 1'
_cell_length_a   8.19810677
_cell_length_b   8.20165253
_cell_length_c   8.17280102
_cell_angle_alpha   59.75141525
_cell_angle_beta   59.68535995
_cell_angle_gamma   59.81423187
_symmetry_Int_Tables_number   1
_chemical_formula_structural   Cs2RbErCl6
_chemical_formula_sum   'Cs2 Rb1 Er1 Cl6'
_cell_volume   386.36750050
_cell_formula_units_Z   1
loop_
 _symmetry_equiv_pos_site_id
 _symmetry_equiv_pos_as_xyz
  1  'x, y, z'
loop_
 _atom_site_type_symbol
 _atom_site_label
 _atom_site_symmetry_multiplicity
 _atom_site_fract_x
 _atom_site_fract_y
 _atom_site_fract_z
 _atom_site_occupancy
  Cs  Cs0  1  0.52567756  0.51332790  0.92325741  1
  Cs  Cs1  1  0.02505210  0.01227408  0.42290851  1
  Rb  Rb2  1  0.77621889  0.76434290  0.17273326  1
  Er  Er3  1  0.27569416  0.26454172  0.67295724  1
  Cl  Cl4  1  0.50286591  0.48986819  0.44586983  1
  Cl  Cl5  1  0.04794284  0.03788012  0.90004307  1
  Cl  Cl6  1  0.50118726  0.03753642  0.89993769  1
  Cl  Cl7  1  0.04809698  0.49058470  0.89975405  1
  Cl  Cl8  1  0.04846317  0.49031466  0.44597706  1
  Cl  Cl9  1  0.50184542  0.03815396  0.44571036  1
