# generated using pymatgen
data_Cs2TlAgF6
_symmetry_space_group_name_H-M   'P 1'
_cell_length_a   6.58419514
_cell_length_b   6.59319162
_cell_length_c   6.56693125
_cell_angle_alpha   59.70397568
_cell_angle_beta   59.71360397
_cell_angle_gamma   59.96630096
_symmetry_Int_Tables_number   1
_chemical_formula_structural   Cs2TlAgF6
_chemical_formula_sum   'Cs2 Tl1 Ag1 F6'
_cell_volume   200.63671820
_cell_formula_units_Z   1
loop_
 _symmetry_equiv_pos_site_id
 _symmetry_equiv_pos_as_xyz
  1  'x, y, z'
loop_
 _atom_site_type_symbol
 _atom_site_label
 _atom_site_symmetry_multiplicity
 _atom_site_fract_x
 _atom_site_fract_y
 _atom_site_fract_z
 _atom_site_occupancy
  Cs  Cs0  1  0.29424226  0.16245784  0.48233691  1
  Cs  Cs1  1  0.79370391  0.66305989  0.98278481  1
  Tl  Tl2  1  0.54369342  0.41333720  0.73230767  1
  Ag  Ag3  1  0.04334791  0.91363204  0.23266049  1
  F  F4  1  0.78425747  0.65521961  0.49110520  1
  F  F5  1  0.78487551  0.17410322  0.97373974  1
  F  F6  1  0.30087629  0.65484291  0.49152157  1
  F  F7  1  0.30178446  0.17343266  0.97368145  1
  F  F8  1  0.78460544  0.17400165  0.49155506  1
  F  F9  1  0.30186829  0.65502298  0.97300160  1
