# generated using pymatgen
data_Cs2TlAsCl6
_symmetry_space_group_name_H-M   'P 1'
_cell_length_a   7.81850004
_cell_length_b   7.83279896
_cell_length_c   7.83442736
_cell_angle_alpha   59.79647446
_cell_angle_beta   59.84464645
_cell_angle_gamma   59.86866379
_symmetry_Int_Tables_number   1
_chemical_formula_structural   Cs2TlAsCl6
_chemical_formula_sum   'Cs2 Tl1 As1 Cl6'
_cell_volume   338.00156278
_cell_formula_units_Z   1
loop_
 _symmetry_equiv_pos_site_id
 _symmetry_equiv_pos_as_xyz
  1  'x, y, z'
loop_
 _atom_site_type_symbol
 _atom_site_label
 _atom_site_symmetry_multiplicity
 _atom_site_fract_x
 _atom_site_fract_y
 _atom_site_fract_z
 _atom_site_occupancy
  Cs  Cs0  1  0.20852040  0.01047513  0.25348273  1
  Cs  Cs1  1  0.70895767  0.51074177  0.75315589  1
  Tl  Tl2  1  0.45895302  0.26169562  0.50198185  1
  As  As3  1  0.95908356  0.76221150  0.00234314  1
  Cl  Cl4  1  0.73257077  0.98807305  0.22801483  1
  Cl  Cl5  1  0.18442319  0.98845488  0.77581924  1
  Cl  Cl6  1  0.18389532  0.53653020  0.77606732  1
  Cl  Cl7  1  0.73293728  0.53623539  0.22772712  1
  Cl  Cl8  1  0.18455964  0.53602469  0.22765976  1
  Cl  Cl9  1  0.73230177  0.98858178  0.77567840  1
