# generated using pymatgen
data_Cs2TlAgCl6
_symmetry_space_group_name_H-M   'P 1'
_cell_length_a   7.56885862
_cell_length_b   7.58303928
_cell_length_c   7.59012222
_cell_angle_alpha   59.83858109
_cell_angle_beta   59.75014496
_cell_angle_gamma   59.92480850
_symmetry_Int_Tables_number   1
_chemical_formula_structural   Cs2TlAgCl6
_chemical_formula_sum   'Cs2 Tl1 Ag1 Cl6'
_cell_volume   306.90517100
_cell_formula_units_Z   1
loop_
 _symmetry_equiv_pos_site_id
 _symmetry_equiv_pos_as_xyz
  1  'x, y, z'
loop_
 _atom_site_type_symbol
 _atom_site_label
 _atom_site_symmetry_multiplicity
 _atom_site_fract_x
 _atom_site_fract_y
 _atom_site_fract_z
 _atom_site_occupancy
  Cs  Cs0  1  0.72498024  0.69337696  0.33794469  1
  Cs  Cs1  1  0.22512376  0.19321924  0.83801037  1
  Tl  Tl2  1  0.47497946  0.44241422  0.08815195  1
  Ag  Ag3  1  0.97530985  0.94329649  0.58856350  1
  Cl  Cl4  1  0.22695524  0.69231510  0.83980185  1
  Cl  Cl5  1  0.72305673  0.19507395  0.33684918  1
  Cl  Cl6  1  0.22612102  0.69273460  0.33682409  1
  Cl  Cl7  1  0.72321904  0.19516411  0.83932298  1
  Cl  Cl8  1  0.22634666  0.19485205  0.33652988  1
  Cl  Cl9  1  0.72309828  0.69200915  0.83991176  1
