# generated using pymatgen
data_Cs3GaF6
_symmetry_space_group_name_H-M   'P 1'
_cell_length_a   6.69903374
_cell_length_b   6.71524143
_cell_length_c   6.70407438
_cell_angle_alpha   59.75309753
_cell_angle_beta   59.74433517
_cell_angle_gamma   60.04450226
_symmetry_Int_Tables_number   1
_chemical_formula_structural   Cs3GaF6
_chemical_formula_sum   'Cs3 Ga1 F6'
_cell_volume   212.51145604
_cell_formula_units_Z   1
loop_
 _symmetry_equiv_pos_site_id
 _symmetry_equiv_pos_as_xyz
  1  'x, y, z'
loop_
 _atom_site_type_symbol
 _atom_site_label
 _atom_site_symmetry_multiplicity
 _atom_site_fract_x
 _atom_site_fract_y
 _atom_site_fract_z
 _atom_site_occupancy
  Cs  Cs0  1  0.18750821  0.36135042  0.82805800  1
  Cs  Cs1  1  0.43678859  0.61190492  0.07673571  1
  Cs  Cs2  1  0.93796366  0.11016116  0.57678723  1
  Ga  Ga3  1  0.68714023  0.86061192  0.32891333  1
  F  F4  1  0.48631167  0.66088432  0.53053629  1
  F  F5  1  0.48561707  0.06394176  0.53061599  1
  F  F6  1  0.89088351  0.06485599  0.12455863  1
  F  F7  1  0.89114851  0.66009164  0.53044200  1
  F  F8  1  0.89025450  0.66017443  0.12432209  1
  F  F9  1  0.48657444  0.06412982  0.12452008  1
