# generated using pymatgen
data_Cs3MnI5
_symmetry_space_group_name_H-M   'P 1'
_cell_length_a   9.03864479
_cell_length_b   9.24422741
_cell_length_c   10.50369263
_cell_angle_alpha   89.91062927
_cell_angle_beta   89.99933624
_cell_angle_gamma   89.93302917
_symmetry_Int_Tables_number   1
_chemical_formula_structural   Cs3MnI5
_chemical_formula_sum   'Cs6 Mn2 I10'
_cell_volume   877.63739441
_cell_formula_units_Z   2
loop_
 _symmetry_equiv_pos_site_id
 _symmetry_equiv_pos_as_xyz
  1  'x, y, z'
loop_
 _atom_site_type_symbol
 _atom_site_label
 _atom_site_symmetry_multiplicity
 _atom_site_fract_x
 _atom_site_fract_y
 _atom_site_fract_z
 _atom_site_occupancy
  Cs  Cs0  1  0.44553474  0.02177910  0.21480055  1
  Cs  Cs1  1  0.44528884  0.02223128  0.71502286  1
  Cs  Cs2  1  0.44556728  0.52212417  0.71447545  1
  Cs  Cs3  1  0.44560853  0.52282202  0.21605001  1
  Cs  Cs4  1  0.94610572  0.02336300  0.71425146  1
  Cs  Cs5  1  0.94603610  0.02311258  0.21631697  1
  Mn  Mn6  1  0.94532156  0.52264196  0.46468803  1
  Mn  Mn7  1  0.94527501  0.52236021  0.96496189  1
  I  I8  1  0.19656377  0.77545565  0.46525541  1
  I  I9  1  0.69439745  0.77275950  0.46532813  1
  I  I10  1  0.94631821  0.52258968  0.71542293  1
  I  I11  1  0.69506109  0.77243495  0.96493632  1
  I  I12  1  0.69493479  0.27339509  0.46483111  1
  I  I13  1  0.94591224  0.52319187  0.21558274  1
  I  I14  1  0.19721842  0.27385700  0.96443415  1
  I  I15  1  0.19758669  0.77378500  0.96422827  1
  I  I16  1  0.69470710  0.27146003  0.96436250  1
  I  I17  1  0.19805802  0.27076539  0.46511152  1
