# generated using pymatgen
data_CsCNO
_symmetry_space_group_name_H-M   'P 1'
_cell_length_a   6.12118912
_cell_length_b   6.13759327
_cell_length_c   6.15594864
_cell_angle_alpha   79.42356873
_cell_angle_beta   66.74981689
_cell_angle_gamma   113.60858917
_symmetry_Int_Tables_number   1
_chemical_formula_structural   CsCNO
_chemical_formula_sum   'Cs2 C2 N2 O2'
_cell_volume   177.95593125
_cell_formula_units_Z   2
loop_
 _symmetry_equiv_pos_site_id
 _symmetry_equiv_pos_as_xyz
  1  'x, y, z'
loop_
 _atom_site_type_symbol
 _atom_site_label
 _atom_site_symmetry_multiplicity
 _atom_site_fract_x
 _atom_site_fract_y
 _atom_site_fract_z
 _atom_site_occupancy
  Cs  Cs0  1  0.29555589  0.01942932  0.35420424  1
  Cs  Cs1  1  0.29632604  0.51873606  0.85596102  1
  C  C2  1  0.79548651  0.27109528  0.60504746  1
  C  C3  1  0.79614162  0.76978987  0.10498545  1
  N  N4  1  0.54893577  0.14696725  0.72822315  1
  N  N5  1  0.04762239  0.39825103  0.47891137  1
  O  O6  1  0.79474097  0.64814836  0.97843665  1
  O  O7  1  0.79562682  0.89937246  0.22800286  1
