# generated using pymatgen
data_CsCu2I3
_symmetry_space_group_name_H-M   'P 1'
_cell_length_a   5.80128479
_cell_length_b   8.75666142
_cell_length_c   8.80065155
_cell_angle_alpha   102.52069092
_cell_angle_beta   90.01265717
_cell_angle_gamma   90.00355530
_symmetry_Int_Tables_number   1
_chemical_formula_structural   CsCu2I3
_chemical_formula_sum   'Cs2 Cu4 I6'
_cell_volume   436.43972176
_cell_formula_units_Z   2
loop_
 _symmetry_equiv_pos_site_id
 _symmetry_equiv_pos_as_xyz
  1  'x, y, z'
loop_
 _atom_site_type_symbol
 _atom_site_label
 _atom_site_symmetry_multiplicity
 _atom_site_fract_x
 _atom_site_fract_y
 _atom_site_fract_z
 _atom_site_occupancy
  Cs  Cs0  1  0.23547406  0.08679073  0.98529202  1
  Cs  Cs1  1  0.73533261  0.41170859  0.65741146  1
  Cu  Cu2  1  0.98403513  0.88414699  0.46340719  1
  Cu  Cu3  1  0.48437127  0.88283265  0.46299312  1
  Cu  Cu4  1  0.48385105  0.61347455  0.19150062  1
  Cu  Cu5  1  0.98390520  0.61393529  0.19105649  1
  I  I6  1  0.73505360  0.87288439  0.19782861  1
  I  I7  1  0.73476374  0.90660387  0.71437472  1
  I  I8  1  0.23494488  0.62238538  0.44578999  1
  I  I9  1  0.23524658  0.59398752  0.92971665  1
  I  I10  1  0.73507774  0.36116743  0.16702853  1
  I  I11  1  0.23452793  0.14141643  0.46966428  1
