# generated using pymatgen
data_CsGdS2
_symmetry_space_group_name_H-M   'P 1'
_cell_length_a   4.14211607
_cell_length_b   4.14137888
_cell_length_c   8.34581280
_cell_angle_alpha   75.50965881
_cell_angle_beta   75.75267029
_cell_angle_gamma   60.11692047
_symmetry_Int_Tables_number   1
_chemical_formula_structural   CsGdS2
_chemical_formula_sum   'Cs1 Gd1 S2'
_cell_volume   118.91721059
_cell_formula_units_Z   1
loop_
 _symmetry_equiv_pos_site_id
 _symmetry_equiv_pos_as_xyz
  1  'x, y, z'
loop_
 _atom_site_type_symbol
 _atom_site_label
 _atom_site_symmetry_multiplicity
 _atom_site_fract_x
 _atom_site_fract_y
 _atom_site_fract_z
 _atom_site_occupancy
  Cs  Cs0  1  0.75701272  0.59692192  0.02019214  1
  Gd  Gd1  1  0.25686336  0.09643458  0.52051294  1
  S  S2  1  0.52960438  0.37139559  0.70317024  1
  S  S3  1  0.98778474  0.82734388  0.33256724  1
