# generated using pymatgen
data_CsInCl3
_symmetry_space_group_name_H-M   'P 1'
_cell_length_a   7.94557381
_cell_length_b   7.94682503
_cell_length_c   7.93770933
_cell_angle_alpha   59.95596313
_cell_angle_beta   59.94676590
_cell_angle_gamma   59.97938538
_symmetry_Int_Tables_number   1
_chemical_formula_structural   CsInCl3
_chemical_formula_sum   'Cs2 In2 Cl6'
_cell_volume   354.08851952
_cell_formula_units_Z   2
loop_
 _symmetry_equiv_pos_site_id
 _symmetry_equiv_pos_as_xyz
  1  'x, y, z'
loop_
 _atom_site_type_symbol
 _atom_site_label
 _atom_site_symmetry_multiplicity
 _atom_site_fract_x
 _atom_site_fract_y
 _atom_site_fract_z
 _atom_site_occupancy
  Cs  Cs0  1  0.51185167  0.89615571  0.33865035  1
  Cs  Cs1  1  0.01078833  0.39629674  0.83890927  1
  In  In2  1  0.26229200  0.64767164  0.08817122  1
  In  In3  1  0.76149935  0.14771274  0.58811587  1
  Cl  Cl4  1  0.99205625  0.37739605  0.35770121  1
  Cl  Cl5  1  0.99123389  0.91752636  0.81854802  1
  Cl  Cl6  1  0.53048640  0.37776178  0.35747167  1
  Cl  Cl7  1  0.99115938  0.91733843  0.35812327  1
  Cl  Cl8  1  0.52969182  0.91756254  0.81868523  1
  Cl  Cl9  1  0.53018022  0.37807250  0.81853002  1
