# generated using pymatgen
data_CsK2As
_symmetry_space_group_name_H-M   'P 1'
_cell_length_a   6.07664204
_cell_length_b   6.07938719
_cell_length_c   6.07194042
_cell_angle_alpha   59.84716415
_cell_angle_beta   60.14051056
_cell_angle_gamma   59.90455246
_symmetry_Int_Tables_number   1
_chemical_formula_structural   CsK2As
_chemical_formula_sum   'Cs1 K2 As1'
_cell_volume   158.48041340
_cell_formula_units_Z   1
loop_
 _symmetry_equiv_pos_site_id
 _symmetry_equiv_pos_as_xyz
  1  'x, y, z'
loop_
 _atom_site_type_symbol
 _atom_site_label
 _atom_site_symmetry_multiplicity
 _atom_site_fract_x
 _atom_site_fract_y
 _atom_site_fract_z
 _atom_site_occupancy
  Cs  Cs0  1  0.13511488  0.29853833  0.88979161  1
  K  K1  1  0.88486975  0.04792383  0.64019090  1
  K  K2  1  0.63508111  0.79800177  0.38998166  1
  As  As3  1  0.38529998  0.54802227  0.14023837  1
