# generated using pymatgen
data_CsNiF3
_symmetry_space_group_name_H-M   'P 1'
_cell_length_a   6.23207617
_cell_length_b   6.22733927
_cell_length_c   6.21028376
_cell_angle_alpha   86.82516479
_cell_angle_beta   62.66292572
_cell_angle_gamma   119.02658844
_symmetry_Int_Tables_number   1
_chemical_formula_structural   CsNiF3
_chemical_formula_sum   'Cs2 Ni2 F6'
_cell_volume   174.78770130
_cell_formula_units_Z   2
loop_
 _symmetry_equiv_pos_site_id
 _symmetry_equiv_pos_as_xyz
  1  'x, y, z'
loop_
 _atom_site_type_symbol
 _atom_site_label
 _atom_site_symmetry_multiplicity
 _atom_site_fract_x
 _atom_site_fract_y
 _atom_site_fract_z
 _atom_site_occupancy
  Cs  Cs0  1  0.65817916  0.03254449  0.42078844  1
  Cs  Cs1  1  0.65792823  0.52946991  0.92144722  1
  Ni  Ni2  1  0.16412252  0.29790321  0.67012614  1
  Ni  Ni3  1  0.16242926  0.79679084  0.17069128  1
  F  F4  1  0.15536046  0.03790386  0.90533268  1
  F  F5  1  0.57474130  0.98866141  0.96485770  1
  F  F6  1  0.57480198  0.48859242  0.46354994  1
  F  F7  1  0.15194318  0.53435832  0.40402600  1
  F  F8  1  0.15240154  0.99083728  0.38096258  1
  F  F9  1  0.15233402  0.49202538  0.87934405  1
