# generated using pymatgen
data_CsPrZnTe3
_symmetry_space_group_name_H-M   'P 1'
_cell_length_a   4.44576073
_cell_length_b   8.89051819
_cell_length_c   11.82286549
_cell_angle_alpha   89.86116791
_cell_angle_beta   89.67050934
_cell_angle_gamma   103.68704224
_symmetry_Int_Tables_number   1
_chemical_formula_structural   CsPrZnTe3
_chemical_formula_sum   'Cs2 Pr2 Zn2 Te6'
_cell_volume   454.01910436
_cell_formula_units_Z   2
loop_
 _symmetry_equiv_pos_site_id
 _symmetry_equiv_pos_as_xyz
  1  'x, y, z'
loop_
 _atom_site_type_symbol
 _atom_site_label
 _atom_site_symmetry_multiplicity
 _atom_site_fract_x
 _atom_site_fract_y
 _atom_site_fract_z
 _atom_site_occupancy
  Cs  Cs0  1  0.36513257  0.98244345  0.45965305  1
  Cs  Cs1  1  0.85364240  0.96072507  0.96024829  1
  Pr  Pr2  1  0.10870072  0.47164011  0.71011186  1
  Pr  Pr3  1  0.10938378  0.47122172  0.21045214  1
  Zn  Zn4  1  0.57141238  0.39619124  0.96036011  1
  Zn  Zn5  1  0.64560390  0.54439104  0.45995221  1
  Te  Te6  1  0.04815384  0.35090962  0.46043369  1
  Te  Te7  1  0.72938132  0.71477294  0.26977381  1
  Te  Te8  1  0.48736960  0.22779663  0.14834593  1
  Te  Te9  1  0.16934349  0.58994448  0.96042949  1
  Te  Te10  1  0.48743132  0.22646593  0.76989597  1
  Te  Te11  1  0.72839469  0.71490389  0.64826739  1
