# generated using pymatgen
data_CsRb
_symmetry_space_group_name_H-M   'P 1'
_cell_length_a   5.18240070
_cell_length_b   5.16643190
_cell_length_c   8.58588791
_cell_angle_alpha   89.78865051
_cell_angle_beta   89.52464294
_cell_angle_gamma   120.21876526
_symmetry_Int_Tables_number   1
_chemical_formula_structural   CsRb
_chemical_formula_sum   'Cs1 Rb1'
_cell_volume   198.62916350
_cell_formula_units_Z   1
loop_
 _symmetry_equiv_pos_site_id
 _symmetry_equiv_pos_as_xyz
  1  'x, y, z'
loop_
 _atom_site_type_symbol
 _atom_site_label
 _atom_site_symmetry_multiplicity
 _atom_site_fract_x
 _atom_site_fract_y
 _atom_site_fract_z
 _atom_site_occupancy
  Cs  Cs0  1  0.93199682  0.48885649  0.91335416  1
  Rb  Rb1  1  0.60151064  0.82224572  0.41500598  1
