# generated using pymatgen
data_CsSrI3
_symmetry_space_group_name_H-M   'P 1'
_cell_length_a   6.48855734
_cell_length_b   6.46341419
_cell_length_c   6.50027370
_cell_angle_alpha   89.94047546
_cell_angle_beta   89.92549133
_cell_angle_gamma   89.99214935
_symmetry_Int_Tables_number   1
_chemical_formula_structural   CsSrI3
_chemical_formula_sum   'Cs1 Sr1 I3'
_cell_volume   272.60961689
_cell_formula_units_Z   1
loop_
 _symmetry_equiv_pos_site_id
 _symmetry_equiv_pos_as_xyz
  1  'x, y, z'
loop_
 _atom_site_type_symbol
 _atom_site_label
 _atom_site_symmetry_multiplicity
 _atom_site_fract_x
 _atom_site_fract_y
 _atom_site_fract_z
 _atom_site_occupancy
  Cs  Cs0  1  0.71121979  0.55925763  0.45850176  1
  Sr  Sr1  1  0.21126755  0.05916422  0.95891142  1
  I  I2  1  0.71121532  0.06032659  0.95857567  1
  I  I3  1  0.21064490  0.55941868  0.95907670  1
  I  I4  1  0.21070121  0.05990305  0.45894799  1
