# generated using pymatgen
data_CsVCl3
_symmetry_space_group_name_H-M   'P 1'
_cell_length_a   6.30137825
_cell_length_b   7.45839739
_cell_length_c   7.47574520
_cell_angle_alpha   120.05178070
_cell_angle_beta   90.08393860
_cell_angle_gamma   89.97274017
_symmetry_Int_Tables_number   1
_chemical_formula_structural   CsVCl3
_chemical_formula_sum   'Cs2 V2 Cl6'
_cell_volume   304.11571635
_cell_formula_units_Z   2
loop_
 _symmetry_equiv_pos_site_id
 _symmetry_equiv_pos_as_xyz
  1  'x, y, z'
loop_
 _atom_site_type_symbol
 _atom_site_label
 _atom_site_symmetry_multiplicity
 _atom_site_fract_x
 _atom_site_fract_y
 _atom_site_fract_z
 _atom_site_occupancy
  Cs  Cs0  1  0.07107954  0.07979700  0.24238242  1
  Cs  Cs1  1  0.56964493  0.74620414  0.57795978  1
  V  V2  1  0.82007784  0.41320211  0.91128826  1
  V  V3  1  0.32046500  0.41305336  0.90994579  1
  Cl  Cl4  1  0.57085472  0.26180771  0.05820309  1
  Cl  Cl5  1  0.57117075  0.26063222  0.61039960  1
  Cl  Cl6  1  0.07176027  0.56284744  0.20991604  1
  Cl  Cl7  1  0.57055986  0.71442729  0.05861215  1
  Cl  Cl8  1  0.07237941  0.11327183  0.75884926  1
  Cl  Cl9  1  0.07155773  0.56226927  0.75908983  1
