# generated using pymatgen
data_Cu2AgH(SO5)2
_symmetry_space_group_name_H-M   'P 1'
_cell_length_a   4.75701714
_cell_length_b   5.52149296
_cell_length_c   7.81169939
_cell_angle_alpha   90.04087067
_cell_angle_beta   89.67073059
_cell_angle_gamma   96.34410858
_symmetry_Int_Tables_number   1
_chemical_formula_structural   Cu2AgH(SO5)2
_chemical_formula_sum   'Cu2 Ag1 H1 S2 O10'
_cell_volume   203.92096206
_cell_formula_units_Z   1
loop_
 _symmetry_equiv_pos_site_id
 _symmetry_equiv_pos_as_xyz
  1  'x, y, z'
loop_
 _atom_site_type_symbol
 _atom_site_label
 _atom_site_symmetry_multiplicity
 _atom_site_fract_x
 _atom_site_fract_y
 _atom_site_fract_z
 _atom_site_occupancy
  Cu  Cu0  1  0.21599005  0.72024280  0.00125861  1
  Cu  Cu1  1  0.66070092  0.36999118  0.17162119  1
  Ag  Ag2  1  0.22057824  0.30932134  0.49393448  1
  H  H3  1  0.89615709  0.02204440  0.82128191  1
  S  S4  1  0.61483103  0.89989936  0.28928006  1
  S  S5  1  0.70602262  0.48428848  0.77397937  1
  O  O6  1  0.79178101  0.14697504  0.33037689  1
  O  O7  1  0.04431666  0.94236118  0.87397164  1
  O  O8  1  0.86845481  0.45794469  0.93953800  1
  O  O9  1  0.41607165  0.84893811  0.42796746  1
  O  O10  1  0.48831126  0.64085096  0.81555474  1
  O  O11  1  0.56624269  0.25849625  0.72631985  1
  O  O12  1  0.32761750  0.47957101  0.15762526  1
  O  O13  1  0.88832152  0.56013525  0.63127089  1
  O  O14  1  0.49121943  0.99677736  0.12714261  1
  O  O15  1  0.80362481  0.71896392  0.24010730  1
