# generated using pymatgen
data_Cu2SnTe3
_symmetry_space_group_name_H-M   'P 1'
_cell_length_a   4.39581203
_cell_length_b   6.08962631
_cell_length_c   7.38668680
_cell_angle_alpha   114.45330811
_cell_angle_beta   107.13564301
_cell_angle_gamma   89.76684570
_symmetry_Int_Tables_number   1
_chemical_formula_structural   Cu2SnTe3
_chemical_formula_sum   'Cu2 Sn1 Te3'
_cell_volume   170.41917233
_cell_formula_units_Z   1
loop_
 _symmetry_equiv_pos_site_id
 _symmetry_equiv_pos_as_xyz
  1  'x, y, z'
loop_
 _atom_site_type_symbol
 _atom_site_label
 _atom_site_symmetry_multiplicity
 _atom_site_fract_x
 _atom_site_fract_y
 _atom_site_fract_z
 _atom_site_occupancy
  Cu  Cu0  1  0.29089013  0.79252142  0.25828242  1
  Cu  Cu1  1  0.63048738  0.12891936  0.93971336  1
  Sn  Sn2  1  0.95951182  0.44965583  0.60383815  1
  Te  Te3  1  0.78717548  0.01107990  0.24903505  1
  Te  Te4  1  0.14577802  0.36615321  0.97021925  1
  Te  Te5  1  0.45812014  0.76043910  0.60052222  1
