# generated using pymatgen
data_Cu6OF11
_symmetry_space_group_name_H-M   'P 1'
_cell_length_a   4.81925440
_cell_length_b   6.35542631
_cell_length_c   7.79264355
_cell_angle_alpha   102.58020782
_cell_angle_beta   91.34317017
_cell_angle_gamma   98.58341980
_symmetry_Int_Tables_number   1
_chemical_formula_structural   Cu6OF11
_chemical_formula_sum   'Cu6 O1 F11'
_cell_volume   229.94971527
_cell_formula_units_Z   1
loop_
 _symmetry_equiv_pos_site_id
 _symmetry_equiv_pos_as_xyz
  1  'x, y, z'
loop_
 _atom_site_type_symbol
 _atom_site_label
 _atom_site_symmetry_multiplicity
 _atom_site_fract_x
 _atom_site_fract_y
 _atom_site_fract_z
 _atom_site_occupancy
  Cu  Cu0  1  0.71985990  0.38209933  0.18802288  1
  Cu  Cu1  1  0.76637900  0.58661550  0.83634406  1
  Cu  Cu2  1  0.27231798  0.77056015  0.53255421  1
  Cu  Cu3  1  0.20076534  0.27465615  0.51763237  1
  Cu  Cu4  1  0.34129104  0.86903483  0.15419641  1
  Cu  Cu5  1  0.22068945  0.13799453  0.89731705  1
  O  O6  1  0.46247378  0.13557144  0.07575253  1
  F  F7  1  0.96407998  0.36072311  0.96744096  1
  F  F8  1  0.54126859  0.62972105  0.06517414  1
  F  F9  1  0.47674626  0.30587092  0.74957168  1
  F  F10  1  0.49738351  0.42663851  0.39336193  1
  F  F11  1  0.96364456  0.23266651  0.31298548  1
  F  F12  1  0.05161107  0.86567974  0.95952713  1
  F  F13  1  0.07127543  0.71225381  0.29313883  1
  F  F14  1  0.52483457  0.92207646  0.40041804  1
  F  F15  1  0.02341610  0.53719217  0.63729811  1
  F  F16  1  0.07361907  0.03283568  0.63602763  1
  F  F17  1  0.55029368  0.76848310  0.72966748  1
