# generated using pymatgen
data_CuRh2Pb
_symmetry_space_group_name_H-M   'P 1'
_cell_length_a   4.47952700
_cell_length_b   4.47595596
_cell_length_c   4.47287798
_cell_angle_alpha   59.72472000
_cell_angle_beta   59.73873901
_cell_angle_gamma   60.04032516
_symmetry_Int_Tables_number   1
_chemical_formula_structural   CuRh2Pb
_chemical_formula_sum   'Cu1 Rh2 Pb1'
_cell_volume   63.17541741
_cell_formula_units_Z   1
loop_
 _symmetry_equiv_pos_site_id
 _symmetry_equiv_pos_as_xyz
  1  'x, y, z'
loop_
 _atom_site_type_symbol
 _atom_site_label
 _atom_site_symmetry_multiplicity
 _atom_site_fract_x
 _atom_site_fract_y
 _atom_site_fract_z
 _atom_site_occupancy
  Cu  Cu0  1  0.14841443  0.29274493  0.42672101  1
  Rh  Rh1  1  0.39845467  0.54239857  0.67635876  1
  Rh  Rh2  1  0.89865416  0.04265559  0.17616455  1
  Pb  Pb3  1  0.64870340  0.79259288  0.92646301  1
