# generated using pymatgen
data_Dy(VCo5)2
_symmetry_space_group_name_H-M   'P 1'
_cell_length_a   4.73529530
_cell_length_b   6.34379101
_cell_length_c   6.37644005
_cell_angle_alpha   81.97956085
_cell_angle_beta   68.00339508
_cell_angle_gamma   68.15956116
_symmetry_Int_Tables_number   1
_chemical_formula_structural   Dy(VCo5)2
_chemical_formula_sum   'Dy1 V2 Co10'
_cell_volume   164.85533843
_cell_formula_units_Z   1
loop_
 _symmetry_equiv_pos_site_id
 _symmetry_equiv_pos_as_xyz
  1  'x, y, z'
loop_
 _atom_site_type_symbol
 _atom_site_label
 _atom_site_symmetry_multiplicity
 _atom_site_fract_x
 _atom_site_fract_y
 _atom_site_fract_z
 _atom_site_occupancy
  Dy  Dy0  1  0.48401764  0.10859336  0.95777267  1
  V  V1  1  0.48314163  0.11023092  0.45891839  1
  V  V2  1  0.48393703  0.73504806  0.32347465  1
  Co  Co3  1  0.12379032  0.46743277  0.31947869  1
  Co  Co4  1  0.98333871  0.33045280  0.73801470  1
  Co  Co5  1  0.48403111  0.46444258  0.60341358  1
  Co  Co6  1  0.98378384  0.88525516  0.17932500  1
  Co  Co7  1  0.98353791  0.60877943  0.95837969  1
  Co  Co8  1  0.48381060  0.60924256  0.95798510  1
  Co  Co9  1  0.76299453  0.32918426  0.17945555  1
  Co  Co10  1  0.84230304  0.75095117  0.60337842  1
  Co  Co11  1  0.98343134  0.10943085  0.45891300  1
  Co  Co12  1  0.20530000  0.88338625  0.73791140  1
