# generated using pymatgen
data_Dy2Au
_symmetry_space_group_name_H-M   'P 1'
_cell_length_a   4.89249563
_cell_length_b   7.26028204
_cell_length_c   8.98213673
_cell_angle_alpha   89.85423279
_cell_angle_beta   89.86862946
_cell_angle_gamma   89.91158295
_symmetry_Int_Tables_number   1
_chemical_formula_structural   Dy2Au
_chemical_formula_sum   'Dy8 Au4'
_cell_volume   319.05131576
_cell_formula_units_Z   4
loop_
 _symmetry_equiv_pos_site_id
 _symmetry_equiv_pos_as_xyz
  1  'x, y, z'
loop_
 _atom_site_type_symbol
 _atom_site_label
 _atom_site_symmetry_multiplicity
 _atom_site_fract_x
 _atom_site_fract_y
 _atom_site_fract_z
 _atom_site_occupancy
  Dy  Dy0  1  0.35150209  0.80030131  0.48251265  1
  Dy  Dy1  1  0.85171962  0.50869066  0.63608521  1
  Dy  Dy2  1  0.35139623  0.30067116  0.13621461  1
  Dy  Dy3  1  0.85185212  0.00863570  0.98274255  1
  Dy  Dy4  1  0.35199514  0.67450517  0.88631499  1
  Dy  Dy5  1  0.85153300  0.63496953  0.23052962  1
  Dy  Dy6  1  0.35171714  0.17469801  0.73055667  1
  Dy  Dy7  1  0.85160083  0.13405685  0.38683084  1
  Au  Au8  1  0.85150719  0.41034904  0.95215803  1
  Au  Au9  1  0.85176051  0.90979731  0.66505992  1
  Au  Au10  1  0.35170838  0.89943999  0.16485280  1
  Au  Au11  1  0.35170528  0.39968804  0.45093367  1
