# generated using pymatgen
data_Dy2Ge6Pt
_symmetry_space_group_name_H-M   'P 1'
_cell_length_a   4.16375828
_cell_length_b   4.18489647
_cell_length_c   10.08535767
_cell_angle_alpha   89.94223785
_cell_angle_beta   89.94048309
_cell_angle_gamma   90.20967865
_symmetry_Int_Tables_number   1
_chemical_formula_structural   Dy2Ge6Pt
_chemical_formula_sum   'Dy2 Ge6 Pt1'
_cell_volume   175.73496015
_cell_formula_units_Z   1
loop_
 _symmetry_equiv_pos_site_id
 _symmetry_equiv_pos_as_xyz
  1  'x, y, z'
loop_
 _atom_site_type_symbol
 _atom_site_label
 _atom_site_symmetry_multiplicity
 _atom_site_fract_x
 _atom_site_fract_y
 _atom_site_fract_z
 _atom_site_occupancy
  Dy  Dy0  1  0.24045628  0.09616423  0.52282172  1
  Dy  Dy1  1  0.74041814  0.59576750  0.01963445  1
  Ge  Ge2  1  0.74109715  0.09649933  0.76069349  1
  Ge  Ge3  1  0.24064627  0.09654354  0.92276222  1
  Ge  Ge4  1  0.24050409  0.59662062  0.29962638  1
  Ge  Ge5  1  0.74004608  0.59624004  0.57765949  1
  Ge  Ge6  1  0.24031839  0.59604758  0.76103717  1
  Ge  Ge7  1  0.74069214  0.09659933  0.29968926  1
  Pt  Pt8  1  0.24102715  0.09597032  0.16136365  1
