# generated using pymatgen
data_Dy2InAg
_symmetry_space_group_name_H-M   'P 1'
_cell_length_a   5.27512598
_cell_length_b   5.27013445
_cell_length_c   5.24389601
_cell_angle_alpha   59.76660538
_cell_angle_beta   59.87152863
_cell_angle_gamma   60.00886917
_symmetry_Int_Tables_number   1
_chemical_formula_structural   Dy2InAg
_chemical_formula_sum   'Dy2 In1 Ag1'
_cell_volume   102.80841845
_cell_formula_units_Z   1
loop_
 _symmetry_equiv_pos_site_id
 _symmetry_equiv_pos_as_xyz
  1  'x, y, z'
loop_
 _atom_site_type_symbol
 _atom_site_label
 _atom_site_symmetry_multiplicity
 _atom_site_fract_x
 _atom_site_fract_y
 _atom_site_fract_z
 _atom_site_occupancy
  Dy  Dy0  1  0.82441801  0.45927843  0.90865493  1
  Dy  Dy1  1  0.32392311  0.95943916  0.40859756  1
  In  In2  1  0.07417621  0.70954847  0.15858489  1
  Ag  Ag3  1  0.57413989  0.20950067  0.65828180  1
