# generated using pymatgen
data_Dy3Pd4
_symmetry_space_group_name_H-M   'P 1'
_cell_length_a   6.09428167
_cell_length_b   7.74466705
_cell_length_c   7.76986837
_cell_angle_alpha   113.09611511
_cell_angle_beta   105.46809387
_cell_angle_gamma   104.79303741
_symmetry_Int_Tables_number   1
_chemical_formula_structural   Dy3Pd4
_chemical_formula_sum   'Dy6 Pd8'
_cell_volume   297.10799045
_cell_formula_units_Z   2
loop_
 _symmetry_equiv_pos_site_id
 _symmetry_equiv_pos_as_xyz
  1  'x, y, z'
loop_
 _atom_site_type_symbol
 _atom_site_label
 _atom_site_symmetry_multiplicity
 _atom_site_fract_x
 _atom_site_fract_y
 _atom_site_fract_z
 _atom_site_occupancy
  Dy  Dy0  1  0.37183079  0.69053680  0.61911845  1
  Dy  Dy1  1  0.74820119  0.42172739  0.47159371  1
  Dy  Dy2  1  0.24908118  0.79172355  0.09724435  1
  Dy  Dy3  1  0.50443435  0.32314128  0.86398375  1
  Dy  Dy4  1  0.87702137  0.93980420  0.36676380  1
  Dy  Dy5  1  0.00476449  0.18582292  0.00781020  1
  Pd  Pd6  1  0.08193106  0.88814867  0.72597426  1
  Pd  Pd7  1  0.47148004  0.56152165  0.24272221  1
  Pd  Pd8  1  0.97106779  0.55942231  0.24249528  1
  Pd  Pd9  1  0.57332224  0.04617700  0.56212980  1
  Pd  Pd10  1  0.06786689  0.38710642  0.74323171  1
  Pd  Pd11  1  0.26463997  0.23164923  0.39877385  1
  Pd  Pd12  1  0.57038409  0.06142028  0.06274658  1
  Pd  Pd13  1  0.76423472  0.71871203  0.89905977  1
