# generated using pymatgen
data_Dy6Co2Sn
_symmetry_space_group_name_H-M   'P 1'
_cell_length_a   8.37284184
_cell_length_b   8.39264488
_cell_length_c   8.40903091
_cell_angle_alpha   72.68206024
_cell_angle_beta   72.30692291
_cell_angle_gamma   111.75296783
_symmetry_Int_Tables_number   1
_chemical_formula_structural   Dy6Co2Sn
_chemical_formula_sum   'Dy12 Co4 Sn2'
_cell_volume   463.25579356
_cell_formula_units_Z   2
loop_
 _symmetry_equiv_pos_site_id
 _symmetry_equiv_pos_as_xyz
  1  'x, y, z'
loop_
 _atom_site_type_symbol
 _atom_site_label
 _atom_site_symmetry_multiplicity
 _atom_site_fract_x
 _atom_site_fract_y
 _atom_site_fract_z
 _atom_site_occupancy
  Dy  Dy0  1  0.55510664  0.04046561  0.70119482  1
  Dy  Dy1  1  0.65390867  0.58630133  0.05690929  1
  Dy  Dy2  1  0.93100095  0.03694630  0.70430219  1
  Dy  Dy3  1  0.29164881  0.42089531  0.51156896  1
  Dy  Dy4  1  0.33778593  0.59886551  0.82840854  1
  Dy  Dy5  1  0.03687969  0.71662074  0.57241422  1
  Dy  Dy6  1  0.84311175  0.28804967  0.95445329  1
  Dy  Dy7  1  0.73221308  0.83081859  0.35703701  1
  Dy  Dy8  1  0.40538517  0.14250901  0.34227055  1
  Dy  Dy9  1  0.38823053  0.81281835  0.17143859  1
  Dy  Dy10  1  0.92946774  0.42284361  0.31263086  1
  Dy  Dy11  1  0.16382405  0.13306776  0.06177066  1
  Co  Co12  1  0.39894986  0.80876923  0.51075876  1
  Co  Co13  1  0.74847645  0.92987859  0.01091878  1
  Co  Co14  1  0.00220293  0.10397027  0.39760971  1
  Co  Co15  1  0.24920805  0.41409341  0.19673251  1
  Sn  Sn16  1  0.60749137  0.41447136  0.70052719  1
  Sn  Sn17  1  0.10739444  0.80794370  0.91811436  1
