# generated using pymatgen
data_Dy7Rh3
_symmetry_space_group_name_H-M   'P 1'
_cell_length_a   6.33236694
_cell_length_b   9.93713284
_cell_length_c   9.97205544
_cell_angle_alpha   119.84350586
_cell_angle_beta   90.00668335
_cell_angle_gamma   90.01441956
_symmetry_Int_Tables_number   1
_chemical_formula_structural   Dy7Rh3
_chemical_formula_sum   'Dy14 Rh6'
_cell_volume   544.28347850
_cell_formula_units_Z   2
loop_
 _symmetry_equiv_pos_site_id
 _symmetry_equiv_pos_as_xyz
  1  'x, y, z'
loop_
 _atom_site_type_symbol
 _atom_site_label
 _atom_site_symmetry_multiplicity
 _atom_site_fract_x
 _atom_site_fract_y
 _atom_site_fract_z
 _atom_site_occupancy
  Dy  Dy0  1  0.72433466  0.95239705  0.94513202  1
  Dy  Dy1  1  0.72071064  0.69867641  0.52432531  1
  Dy  Dy2  1  0.22272052  0.88076550  0.70707971  1
  Dy  Dy3  1  0.74251348  0.72255361  0.14691105  1
  Dy  Dy4  1  0.04629594  0.43995598  0.87873459  1
  Dy  Dy5  1  0.75320429  0.09813957  0.69840169  1
  Dy  Dy6  1  0.25041658  0.22026312  0.07779348  1
  Dy  Dy7  1  0.04338269  0.44350478  0.50088370  1
  Dy  Dy8  1  0.24706310  0.62428194  0.29802030  1
  Dy  Dy9  1  0.72124273  0.36344329  0.14641581  1
  Dy  Dy10  1  0.23859750  0.13117850  0.51281703  1
  Dy  Dy11  1  0.22029684  0.85616404  0.08363803  1
  Dy  Dy12  1  0.71933103  0.11974964  0.35745111  1
  Dy  Dy13  1  0.53840286  0.51687455  0.74257153  1
  Rh  Rh14  1  0.45287809  0.19601946  0.81319362  1
  Rh  Rh15  1  0.96170545  0.68720680  0.80672008  1
  Rh  Rh16  1  0.45193374  0.52024901  0.02728025  1
  Rh  Rh17  1  0.97027415  0.88430923  0.42457724  1
  Rh  Rh18  1  0.97994912  0.13669637  0.21347436  1
  Rh  Rh19  1  0.47089779  0.39975756  0.41030839  1
