# generated using pymatgen
data_DyAl
_symmetry_space_group_name_H-M   'P 1'
_cell_length_a   5.79387903
_cell_length_b   5.84666777
_cell_length_c   13.01054096
_cell_angle_alpha   77.17425537
_cell_angle_beta   77.11147308
_cell_angle_gamma   60.44300842
_symmetry_Int_Tables_number   1
_chemical_formula_structural   DyAl
_chemical_formula_sum   'Dy8 Al8'
_cell_volume   370.44578489
_cell_formula_units_Z   8
loop_
 _symmetry_equiv_pos_site_id
 _symmetry_equiv_pos_as_xyz
  1  'x, y, z'
loop_
 _atom_site_type_symbol
 _atom_site_label
 _atom_site_symmetry_multiplicity
 _atom_site_fract_x
 _atom_site_fract_y
 _atom_site_fract_z
 _atom_site_occupancy
  Dy  Dy0  1  0.52792066  0.90625089  0.54264861  1
  Dy  Dy1  1  0.71835077  0.09379338  0.98643881  1
  Dy  Dy2  1  0.84941447  0.22778991  0.57440037  1
  Dy  Dy3  1  0.31775141  0.69298244  0.17750521  1
  Dy  Dy4  1  0.07963689  0.47575939  0.86576921  1
  Dy  Dy5  1  0.61787403  0.99680930  0.27202863  1
  Dy  Dy6  1  0.17689864  0.55059725  0.59435451  1
  Dy  Dy7  1  0.98566514  0.37292582  0.16483951  1
  Al  Al8  1  0.08161642  0.95517892  0.38044062  1
  Al  Al9  1  0.62009752  0.50062394  0.76300585  1
  Al  Al10  1  0.21903431  0.09434526  0.00188776  1
  Al  Al11  1  0.12342965  0.99375421  0.76500797  1
  Al  Al12  1  0.08042827  0.45654121  0.38020122  1
  Al  Al13  1  0.61940330  0.99106669  0.76437491  1
  Al  Al14  1  0.57462090  0.45605463  0.38217989  1
  Al  Al15  1  0.41286322  0.74614722  0.93215847  1
