# generated using pymatgen
data_DyBiPt
_symmetry_space_group_name_H-M   'P 1'
_cell_length_a   4.81511354
_cell_length_b   4.81603384
_cell_length_c   4.80043840
_cell_angle_alpha   59.56744766
_cell_angle_beta   59.57828140
_cell_angle_gamma   59.83480453
_symmetry_Int_Tables_number   1
_chemical_formula_structural   DyBiPt
_chemical_formula_sum   'Dy1 Bi1 Pt1'
_cell_volume   78.10694850
_cell_formula_units_Z   1
loop_
 _symmetry_equiv_pos_site_id
 _symmetry_equiv_pos_as_xyz
  1  'x, y, z'
loop_
 _atom_site_type_symbol
 _atom_site_label
 _atom_site_symmetry_multiplicity
 _atom_site_fract_x
 _atom_site_fract_y
 _atom_site_fract_z
 _atom_site_occupancy
  Dy  Dy0  1  0.36621544  0.44706550  0.25314185  1
  Bi  Bi1  1  0.86605555  0.94616675  0.75159812  1
  Pt  Pt2  1  0.11687265  0.19650780  0.00304925  1
