# generated using pymatgen
data_DyCd
_symmetry_space_group_name_H-M   'P 1'
_cell_length_a   3.74866462
_cell_length_b   3.75086379
_cell_length_c   3.71501064
_cell_angle_alpha   89.84214020
_cell_angle_beta   89.68789673
_cell_angle_gamma   90.04498291
_symmetry_Int_Tables_number   1
_chemical_formula_structural   DyCd
_chemical_formula_sum   'Dy1 Cd1'
_cell_volume   52.23477304
_cell_formula_units_Z   1
loop_
 _symmetry_equiv_pos_site_id
 _symmetry_equiv_pos_as_xyz
  1  'x, y, z'
loop_
 _atom_site_type_symbol
 _atom_site_label
 _atom_site_symmetry_multiplicity
 _atom_site_fract_x
 _atom_site_fract_y
 _atom_site_fract_z
 _atom_site_occupancy
  Dy  Dy0  1  0.31943116  0.57670301  0.73104769  1
  Cd  Cd1  1  0.81912905  0.07665487  0.23075296  1
