# generated using pymatgen
data_DyCuTe2
_symmetry_space_group_name_H-M   'P 1'
_cell_length_a   4.33398867
_cell_length_b   6.86330938
_cell_length_c   8.17162228
_cell_angle_alpha   114.14237976
_cell_angle_beta   105.24531555
_cell_angle_gamma   89.95431519
_symmetry_Int_Tables_number   1
_chemical_formula_structural   DyCuTe2
_chemical_formula_sum   'Dy2 Cu2 Te4'
_cell_volume   212.42361763
_cell_formula_units_Z   2
loop_
 _symmetry_equiv_pos_site_id
 _symmetry_equiv_pos_as_xyz
  1  'x, y, z'
loop_
 _atom_site_type_symbol
 _atom_site_label
 _atom_site_symmetry_multiplicity
 _atom_site_fract_x
 _atom_site_fract_y
 _atom_site_fract_z
 _atom_site_occupancy
  Dy  Dy0  1  0.42054665  0.71494454  0.21966831  1
  Dy  Dy1  1  0.67446083  0.95944554  0.73058772  1
  Cu  Cu2  1  0.86689287  0.35620841  0.10848474  1
  Cu  Cu3  1  0.22786641  0.31753832  0.83550829  1
  Te  Te4  1  0.75682598  0.56445199  0.89674520  1
  Te  Te5  1  0.33426648  0.11661109  0.05275368  1
  Te  Te6  1  0.04557259  0.59717029  0.47655669  1
  Te  Te7  1  0.04540531  0.08239351  0.47708112  1
