# generated using pymatgen
data_DyHoIn2
_symmetry_space_group_name_H-M   'P 1'
_cell_length_a   5.33318949
_cell_length_b   5.33480978
_cell_length_c   5.32884407
_cell_angle_alpha   59.82120514
_cell_angle_beta   59.93924713
_cell_angle_gamma   59.97700882
_symmetry_Int_Tables_number   1
_chemical_formula_structural   DyHoIn2
_chemical_formula_sum   'Dy1 Ho1 In2'
_cell_volume   106.99394139
_cell_formula_units_Z   1
loop_
 _symmetry_equiv_pos_site_id
 _symmetry_equiv_pos_as_xyz
  1  'x, y, z'
loop_
 _atom_site_type_symbol
 _atom_site_label
 _atom_site_symmetry_multiplicity
 _atom_site_fract_x
 _atom_site_fract_y
 _atom_site_fract_z
 _atom_site_occupancy
  Dy  Dy0  1  0.71130735  0.52705538  0.84921378  1
  Ho  Ho1  1  0.21142152  0.02746713  0.34986070  1
  In  In2  1  0.46197063  0.27675471  0.59933281  1
  In  In3  1  0.96139753  0.77683908  0.09945910  1
