# generated using pymatgen
data_DyMg3
_symmetry_space_group_name_H-M   'P 1'
_cell_length_a   4.00887823
_cell_length_b   5.08397293
_cell_length_c   5.02501774
_cell_angle_alpha   90.11470032
_cell_angle_beta   90.13451385
_cell_angle_gamma   89.83986664
_symmetry_Int_Tables_number   1
_chemical_formula_structural   DyMg3
_chemical_formula_sum   'Dy1 Mg3'
_cell_volume   102.41414317
_cell_formula_units_Z   1
loop_
 _symmetry_equiv_pos_site_id
 _symmetry_equiv_pos_as_xyz
  1  'x, y, z'
loop_
 _atom_site_type_symbol
 _atom_site_label
 _atom_site_symmetry_multiplicity
 _atom_site_fract_x
 _atom_site_fract_y
 _atom_site_fract_z
 _atom_site_occupancy
  Dy  Dy0  1  0.62660110  0.82042819  0.27801159  1
  Mg  Mg1  1  0.12730409  0.82066274  0.77942133  1
  Mg  Mg2  1  0.62700313  0.32070649  0.77950472  1
  Mg  Mg3  1  0.12686273  0.32007483  0.27932784  1
