# generated using pymatgen
data_DyNi3
_symmetry_space_group_name_H-M   'P 1'
_cell_length_a   4.95031023
_cell_length_b   4.95893860
_cell_length_c   8.57632351
_cell_angle_alpha   73.17638397
_cell_angle_beta   73.12927246
_cell_angle_gamma   59.79480743
_symmetry_Int_Tables_number   1
_chemical_formula_structural   DyNi3
_chemical_formula_sum   'Dy3 Ni9'
_cell_volume   171.48078842
_cell_formula_units_Z   3
loop_
 _symmetry_equiv_pos_site_id
 _symmetry_equiv_pos_as_xyz
  1  'x, y, z'
loop_
 _atom_site_type_symbol
 _atom_site_label
 _atom_site_symmetry_multiplicity
 _atom_site_fract_x
 _atom_site_fract_y
 _atom_site_fract_z
 _atom_site_occupancy
  Dy  Dy0  1  0.58572620  0.68999082  0.36407533  1
  Dy  Dy1  1  0.44626337  0.55211234  0.78001177  1
  Dy  Dy2  1  0.30496004  0.40896830  0.20332649  1
  Ni  Ni3  1  0.86421609  0.96773303  0.02728865  1
  Ni  Ni4  1  0.02924735  0.63191730  0.53292423  1
  Ni  Ni5  1  0.11355975  0.21929994  0.77875572  1
  Ni  Ni6  1  0.77772439  0.88377142  0.77907246  1
  Ni  Ni7  1  0.86369818  0.47008166  0.02725514  1
  Ni  Ni8  1  0.02942501  0.13350944  0.53316969  1
  Ni  Ni9  1  0.94536769  0.05012108  0.28068984  1
  Ni  Ni10  1  0.52741599  0.13332647  0.53359431  1
  Ni  Ni11  1  0.36434367  0.96748435  0.02759912  1
