# generated using pymatgen
data_DyPaTc2
_symmetry_space_group_name_H-M   'P 1'
_cell_length_a   4.86707115
_cell_length_b   4.85345745
_cell_length_c   4.83511686
_cell_angle_alpha   59.78702927
_cell_angle_beta   59.84280014
_cell_angle_gamma   60.04873276
_symmetry_Int_Tables_number   1
_chemical_formula_structural   DyPaTc2
_chemical_formula_sum   'Dy1 Pa1 Tc2'
_cell_volume   80.56545007
_cell_formula_units_Z   1
loop_
 _symmetry_equiv_pos_site_id
 _symmetry_equiv_pos_as_xyz
  1  'x, y, z'
loop_
 _atom_site_type_symbol
 _atom_site_label
 _atom_site_symmetry_multiplicity
 _atom_site_fract_x
 _atom_site_fract_y
 _atom_site_fract_z
 _atom_site_occupancy
  Dy  Dy0  1  0.61138761  0.40909624  0.62279564  1
  Pa  Pa1  1  0.11114797  0.90946603  0.12309053  1
  Tc  Tc2  1  0.86147177  0.65896499  0.87367517  1
  Tc  Tc3  1  0.36127120  0.15970585  0.37272027  1
