# generated using pymatgen
data_DyScZn2
_symmetry_space_group_name_H-M   'P 1'
_cell_length_a   4.94195414
_cell_length_b   4.93197918
_cell_length_c   4.92738724
_cell_angle_alpha   59.74732971
_cell_angle_beta   60.05633163
_cell_angle_gamma   59.92499161
_symmetry_Int_Tables_number   1
_chemical_formula_structural   DyScZn2
_chemical_formula_sum   'Dy1 Sc1 Zn2'
_cell_volume   84.74678527
_cell_formula_units_Z   1
loop_
 _symmetry_equiv_pos_site_id
 _symmetry_equiv_pos_as_xyz
  1  'x, y, z'
loop_
 _atom_site_type_symbol
 _atom_site_label
 _atom_site_symmetry_multiplicity
 _atom_site_fract_x
 _atom_site_fract_y
 _atom_site_fract_z
 _atom_site_occupancy
  Dy  Dy0  1  0.18368301  0.37976900  0.32637751  1
  Sc  Sc1  1  0.68393379  0.88003463  0.82602608  1
  Zn  Zn2  1  0.93342364  0.12968889  0.07625143  1
  Zn  Zn3  1  0.43378231  0.63000250  0.57577044  1
