# generated using pymatgen
data_DyScSb
_symmetry_space_group_name_H-M   'P 1'
_cell_length_a   4.34637976
_cell_length_b   4.34728527
_cell_length_c   8.79477596
_cell_angle_alpha   104.21850586
_cell_angle_beta   103.81587982
_cell_angle_gamma   90.09499359
_symmetry_Int_Tables_number   1
_chemical_formula_structural   DyScSb
_chemical_formula_sum   'Dy2 Sc2 Sb2'
_cell_volume   156.10428293
_cell_formula_units_Z   2
loop_
 _symmetry_equiv_pos_site_id
 _symmetry_equiv_pos_as_xyz
  1  'x, y, z'
loop_
 _atom_site_type_symbol
 _atom_site_label
 _atom_site_symmetry_multiplicity
 _atom_site_fract_x
 _atom_site_fract_y
 _atom_site_fract_z
 _atom_site_occupancy
  Dy  Dy0  1  0.57562953  0.77408773  0.64963907  1
  Dy  Dy1  1  0.25851026  0.95775551  0.01705598  1
  Sc  Sc2  1  0.89852750  0.59781390  0.29737213  1
  Sc  Sc3  1  0.07697111  0.27465481  0.65029651  1
  Sb  Sb4  1  0.71422434  0.41551828  0.92705554  1
  Sb  Sb5  1  0.44127801  0.13990973  0.38235211  1
