# generated using pymatgen
data_DySn2
_symmetry_space_group_name_H-M   'P 1'
_cell_length_a   4.41827583
_cell_length_b   4.51571035
_cell_length_c   8.28764343
_cell_angle_alpha   105.63038635
_cell_angle_beta   90.15123749
_cell_angle_gamma   90.04397583
_symmetry_Int_Tables_number   1
_chemical_formula_structural   DySn2
_chemical_formula_sum   'Dy2 Sn4'
_cell_volume   159.23669595
_cell_formula_units_Z   2
loop_
 _symmetry_equiv_pos_site_id
 _symmetry_equiv_pos_as_xyz
  1  'x, y, z'
loop_
 _atom_site_type_symbol
 _atom_site_label
 _atom_site_symmetry_multiplicity
 _atom_site_fract_x
 _atom_site_fract_y
 _atom_site_fract_z
 _atom_site_occupancy
  Dy  Dy0  1  0.00732551  0.70378524  0.72876948  1
  Dy  Dy1  1  0.00724936  0.00111651  0.33657274  1
  Sn  Sn2  1  0.50788742  0.85471117  0.03237683  1
  Sn  Sn3  1  0.00753857  0.35487723  0.03193931  1
  Sn  Sn4  1  0.50746298  0.54311305  0.40506953  1
  Sn  Sn5  1  0.50732529  0.16743663  0.66994077  1
