# generated using pymatgen
data_DyZnSi
_symmetry_space_group_name_H-M   'P 1'
_cell_length_a   4.02657652
_cell_length_b   4.09494305
_cell_length_c   4.10231400
_cell_angle_alpha   119.29637909
_cell_angle_beta   89.36559296
_cell_angle_gamma   89.88986969
_symmetry_Int_Tables_number   1
_chemical_formula_structural   DyZnSi
_chemical_formula_sum   'Dy1 Zn1 Si1'
_cell_volume   58.98439084
_cell_formula_units_Z   1
loop_
 _symmetry_equiv_pos_site_id
 _symmetry_equiv_pos_as_xyz
  1  'x, y, z'
loop_
 _atom_site_type_symbol
 _atom_site_label
 _atom_site_symmetry_multiplicity
 _atom_site_fract_x
 _atom_site_fract_y
 _atom_site_fract_z
 _atom_site_occupancy
  Dy  Dy0  1  0.12905167  0.69888294  0.19789335  1
  Zn  Zn1  1  0.62895453  0.03259346  0.86626536  1
  Si  Si2  1  0.62922341  0.36544815  0.52900088  1
