# generated using pymatgen
data_Er(NiP)2
_symmetry_space_group_name_H-M   'P 1'
_cell_length_a   3.87856746
_cell_length_b   3.86761665
_cell_length_c   5.39225960
_cell_angle_alpha   111.23062134
_cell_angle_beta   111.16548920
_cell_angle_gamma   90.17786407
_symmetry_Int_Tables_number   1
_chemical_formula_structural   Er(NiP)2
_chemical_formula_sum   'Er1 Ni2 P2'
_cell_volume   69.47352583
_cell_formula_units_Z   1
loop_
 _symmetry_equiv_pos_site_id
 _symmetry_equiv_pos_as_xyz
  1  'x, y, z'
loop_
 _atom_site_type_symbol
 _atom_site_label
 _atom_site_symmetry_multiplicity
 _atom_site_fract_x
 _atom_site_fract_y
 _atom_site_fract_z
 _atom_site_occupancy
  Er  Er0  1  0.71173018  0.90354067  0.98304194  1
  Ni  Ni1  1  0.46156743  0.15275870  0.48277855  1
  Ni  Ni2  1  0.96117765  0.65261364  0.48313639  1
  P  P3  1  0.08775274  0.27991179  0.74005783  1
  P  P4  1  0.33514705  0.52519107  0.22813036  1
