# generated using pymatgen
data_Er2AlNi2
_symmetry_space_group_name_H-M   'P 1'
_cell_length_a   4.14428663
_cell_length_b   5.32543802
_cell_length_c   5.30490494
_cell_angle_alpha   60.12264633
_cell_angle_beta   66.63674927
_cell_angle_gamma   66.69604492
_symmetry_Int_Tables_number   1
_chemical_formula_structural   Er2AlNi2
_chemical_formula_sum   'Er2 Al1 Ni2'
_cell_volume   90.26452519
_cell_formula_units_Z   1
loop_
 _symmetry_equiv_pos_site_id
 _symmetry_equiv_pos_as_xyz
  1  'x, y, z'
loop_
 _atom_site_type_symbol
 _atom_site_label
 _atom_site_symmetry_multiplicity
 _atom_site_fract_x
 _atom_site_fract_y
 _atom_site_fract_z
 _atom_site_occupancy
  Er  Er0  1  0.54869205  0.11113258  0.79086000  1
  Er  Er1  1  0.95727432  0.70586789  0.38647631  1
  Al  Al2  1  0.75584161  0.40776128  0.08878499  1
  Ni  Ni3  1  0.25514689  0.67824847  0.82039076  1
  Ni  Ni4  1  0.25515169  0.13880414  0.36040223  1
