# generated using pymatgen
data_Er2CoIr
_symmetry_space_group_name_H-M   'P 1'
_cell_length_a   4.78972197
_cell_length_b   4.79416466
_cell_length_c   4.79184246
_cell_angle_alpha   59.72296906
_cell_angle_beta   59.92808151
_cell_angle_gamma   60.07947540
_symmetry_Int_Tables_number   1
_chemical_formula_structural   Er2CoIr
_chemical_formula_sum   'Er2 Co1 Ir1'
_cell_volume   77.64552499
_cell_formula_units_Z   1
loop_
 _symmetry_equiv_pos_site_id
 _symmetry_equiv_pos_as_xyz
  1  'x, y, z'
loop_
 _atom_site_type_symbol
 _atom_site_label
 _atom_site_symmetry_multiplicity
 _atom_site_fract_x
 _atom_site_fract_y
 _atom_site_fract_z
 _atom_site_occupancy
  Er  Er0  1  0.12985294  0.58310109  0.70055759  1
  Er  Er1  1  0.63024026  0.08338241  0.20055455  1
  Co  Co2  1  0.88011193  0.33368787  0.45039731  1
  Ir  Ir3  1  0.38004971  0.83348703  0.94995105  1
