# generated using pymatgen
data_Er2Ge5Ru3
_symmetry_space_group_name_H-M   'P 1'
_cell_length_a   5.78541422
_cell_length_b   8.44193649
_cell_length_c   8.44172955
_cell_angle_alpha   96.03954315
_cell_angle_beta   108.73459625
_cell_angle_gamma   108.25963593
_symmetry_Int_Tables_number   1
_chemical_formula_structural   Er2Ge5Ru3
_chemical_formula_sum   'Er4 Ge10 Ru6'
_cell_volume   360.94575695
_cell_formula_units_Z   2
loop_
 _symmetry_equiv_pos_site_id
 _symmetry_equiv_pos_as_xyz
  1  'x, y, z'
loop_
 _atom_site_type_symbol
 _atom_site_label
 _atom_site_symmetry_multiplicity
 _atom_site_fract_x
 _atom_site_fract_y
 _atom_site_fract_z
 _atom_site_occupancy
  Er  Er0  1  0.91451705  0.35062668  0.78302830  1
  Er  Er1  1  0.94136733  0.76709914  0.78278804  1
  Er  Er2  1  0.39162531  0.97999656  0.49910194  1
  Er  Er3  1  0.49663028  0.55478901  0.06405820  1
  Ge  Ge4  1  0.99882376  0.18506253  0.48423293  1
  Ge  Ge5  1  0.50668627  0.31545973  0.36411980  1
  Ge  Ge6  1  0.92103249  0.29077414  0.12110350  1
  Ge  Ge7  1  0.35281387  0.65877581  0.72522879  1
  Ge  Ge8  1  0.42237899  0.89640057  0.12913767  1
  Ge  Ge9  1  0.92361355  0.91805792  0.12734473  1
  Ge  Ge10  1  0.91895866  0.66410130  0.39000902  1
  Ge  Ge11  1  0.42237109  0.62786037  0.41355312  1
  Ge  Ge12  1  0.90797365  0.04276249  0.75754064  1
  Ge  Ge13  1  0.42041045  0.21869425  0.82277256  1
  Ru  Ru14  1  0.56074685  0.98110604  0.88834149  1
  Ru  Ru15  1  0.29411098  0.14935972  0.06370879  1
  Ru  Ru16  1  0.79802549  0.89203811  0.40651679  1
  Ru  Ru17  1  0.06159969  0.64788312  0.14448367  1
  Ru  Ru18  1  0.97678429  0.46054608  0.44840598  1
  Ru  Ru19  1  0.42461649  0.40714964  0.63096553  1
