# generated using pymatgen
data_Er2SiGe
_symmetry_space_group_name_H-M   'P 1'
_cell_length_a   3.86914945
_cell_length_b   4.41823339
_cell_length_c   5.71687889
_cell_angle_alpha   111.43397522
_cell_angle_beta   89.99895477
_cell_angle_gamma   90.07326508
_symmetry_Int_Tables_number   1
_chemical_formula_structural   Er2SiGe
_chemical_formula_sum   'Er2 Si1 Ge1'
_cell_volume   90.96984406
_cell_formula_units_Z   1
loop_
 _symmetry_equiv_pos_site_id
 _symmetry_equiv_pos_as_xyz
  1  'x, y, z'
loop_
 _atom_site_type_symbol
 _atom_site_label
 _atom_site_symmetry_multiplicity
 _atom_site_fract_x
 _atom_site_fract_y
 _atom_site_fract_z
 _atom_site_occupancy
  Er  Er0  1  0.53033441  0.92719704  0.82818580  1
  Er  Er1  1  0.03108503  0.65086097  0.28129673  1
  Si  Si2  1  0.53142428  0.20650440  0.38418594  1
  Ge  Ge3  1  0.03118462  0.37176475  0.72079247  1
