# generated using pymatgen
data_Er3CoSi3
_symmetry_space_group_name_H-M   'P 1'
_cell_length_a   4.04166889
_cell_length_b   5.71193647
_cell_length_c   12.51322937
_cell_angle_alpha   95.05937958
_cell_angle_beta   89.50286102
_cell_angle_gamma   110.63168335
_symmetry_Int_Tables_number   1
_chemical_formula_structural   Er3CoSi3
_chemical_formula_sum   'Er6 Co2 Si6'
_cell_volume   269.21909775
_cell_formula_units_Z   2
loop_
 _symmetry_equiv_pos_site_id
 _symmetry_equiv_pos_as_xyz
  1  'x, y, z'
loop_
 _atom_site_type_symbol
 _atom_site_label
 _atom_site_symmetry_multiplicity
 _atom_site_fract_x
 _atom_site_fract_y
 _atom_site_fract_z
 _atom_site_occupancy
  Er  Er0  1  0.64083999  0.25587943  0.89486337  1
  Er  Er1  1  0.91076040  0.80224472  0.80416751  1
  Er  Er2  1  0.92821461  0.82874429  0.11010836  1
  Er  Er3  1  0.66298681  0.30210978  0.30292627  1
  Er  Er4  1  0.67949080  0.32967389  0.58937234  1
  Er  Er5  1  0.95460111  0.88369209  0.44399869  1
  Co  Co6  1  0.24413842  0.46182573  0.76081097  1
  Co  Co7  1  0.21320371  0.39985433  0.10963288  1
  Si  Si8  1  0.39153963  0.75920779  0.62069458  1
  Si  Si9  1  0.61587757  0.20576550  0.09854899  1
  Si  Si10  1  0.06948391  0.10722338  0.68842798  1
  Si  Si11  1  0.25023207  0.47457680  0.44197038  1
  Si  Si12  1  0.33813849  0.65046078  0.95224494  1
  Si  Si13  1  0.36774650  0.70815313  0.27195755  1
