# generated using pymatgen
data_Er3Mg
_symmetry_space_group_name_H-M   'P 1'
_cell_length_a   5.56732082
_cell_length_b   6.90461445
_cell_length_c   6.87961721
_cell_angle_alpha   119.86737823
_cell_angle_beta   90.26012421
_cell_angle_gamma   89.93893433
_symmetry_Int_Tables_number   1
_chemical_formula_structural   Er3Mg
_chemical_formula_sum   'Er6 Mg2'
_cell_volume   229.32665383
_cell_formula_units_Z   2
loop_
 _symmetry_equiv_pos_site_id
 _symmetry_equiv_pos_as_xyz
  1  'x, y, z'
loop_
 _atom_site_type_symbol
 _atom_site_label
 _atom_site_symmetry_multiplicity
 _atom_site_fract_x
 _atom_site_fract_y
 _atom_site_fract_z
 _atom_site_occupancy
  Er  Er0  1  0.91184187  0.72876966  0.31870526  1
  Er  Er1  1  0.41216224  0.56295162  0.98528433  1
  Er  Er2  1  0.91194689  0.72945589  0.81662834  1
  Er  Er3  1  0.41202587  0.06511493  0.48401335  1
  Er  Er4  1  0.91170055  0.23109463  0.81858361  1
  Er  Er5  1  0.41210288  0.06482643  0.98775452  1
  Mg  Mg6  1  0.41190848  0.56188560  0.48566669  1
  Mg  Mg7  1  0.91211617  0.23112856  0.31910792  1
