# generated using pymatgen
data_Er3ScS6
_symmetry_space_group_name_H-M   'P 1'
_cell_length_a   6.42413378
_cell_length_b   7.03754044
_cell_length_c   9.80262756
_cell_angle_alpha   89.87071228
_cell_angle_beta   90.06694794
_cell_angle_gamma   89.98189545
_symmetry_Int_Tables_number   1
_chemical_formula_structural   Er3ScS6
_chemical_formula_sum   'Er6 Sc2 S12'
_cell_volume   443.17633110
_cell_formula_units_Z   2
loop_
 _symmetry_equiv_pos_site_id
 _symmetry_equiv_pos_as_xyz
  1  'x, y, z'
loop_
 _atom_site_type_symbol
 _atom_site_label
 _atom_site_symmetry_multiplicity
 _atom_site_fract_x
 _atom_site_fract_y
 _atom_site_fract_z
 _atom_site_occupancy
  Er  Er0  1  0.44354403  0.83889276  0.27402309  1
  Er  Er1  1  0.02001769  0.33793470  0.27506685  1
  Er  Er2  1  0.97884113  0.93547457  0.52458084  1
  Er  Er3  1  0.47865260  0.43553126  0.02444384  1
  Er  Er4  1  0.51986021  0.03133908  0.77510160  1
  Er  Er5  1  0.94358909  0.53077143  0.77374285  1
  Sc  Sc6  1  0.97844094  0.93517780  0.02502059  1
  Sc  Sc7  1  0.47942528  0.43519771  0.52456278  1
  S  S8  1  0.15390052  0.61873901  0.09940947  1
  S  S9  1  0.65486777  0.74992013  0.59950227  1
  S  S10  1  0.12984802  0.87444556  0.77896631  1
  S  S11  1  0.32593831  0.37405702  0.76950502  1
  S  S12  1  0.82505971  0.99345660  0.26911280  1
  S  S13  1  0.80319440  0.24814524  0.94364548  1
  S  S14  1  0.66150963  0.75235188  0.94673425  1
  S  S15  1  0.30369261  0.12358168  0.44339862  1
  S  S16  1  0.62990505  0.49345466  0.27867541  1
  S  S17  1  0.16278671  0.61702365  0.44632807  1
  S  S18  1  0.80156374  0.25515270  0.59632307  1
  S  S19  1  0.30152333  0.11629602  0.09487069  1
