# generated using pymatgen
data_ErCu
_symmetry_space_group_name_H-M   'P 1'
_cell_length_a   3.43857694
_cell_length_b   3.40402007
_cell_length_c   3.39512873
_cell_angle_alpha   90.01147461
_cell_angle_beta   89.89347839
_cell_angle_gamma   90.39448547
_symmetry_Int_Tables_number   1
_chemical_formula_structural   ErCu
_chemical_formula_sum   'Er1 Cu1'
_cell_volume   39.73891922
_cell_formula_units_Z   1
loop_
 _symmetry_equiv_pos_site_id
 _symmetry_equiv_pos_as_xyz
  1  'x, y, z'
loop_
 _atom_site_type_symbol
 _atom_site_label
 _atom_site_symmetry_multiplicity
 _atom_site_fract_x
 _atom_site_fract_y
 _atom_site_fract_z
 _atom_site_occupancy
  Er  Er0  1  0.79492158  0.70086485  0.56884843  1
  Cu  Cu1  1  0.29507774  0.20067918  0.06842685  1
