# generated using pymatgen
data_ErNiSn
_symmetry_space_group_name_H-M   'P 1'
_cell_length_a   4.45774031
_cell_length_b   7.16657162
_cell_length_c   7.54332972
_cell_angle_alpha   89.89643097
_cell_angle_beta   89.88311005
_cell_angle_gamma   89.95606232
_symmetry_Int_Tables_number   1
_chemical_formula_structural   ErNiSn
_chemical_formula_sum   'Er4 Ni4 Sn4'
_cell_volume   240.98364040
_cell_formula_units_Z   4
loop_
 _symmetry_equiv_pos_site_id
 _symmetry_equiv_pos_as_xyz
  1  'x, y, z'
loop_
 _atom_site_type_symbol
 _atom_site_label
 _atom_site_symmetry_multiplicity
 _atom_site_fract_x
 _atom_site_fract_y
 _atom_site_fract_z
 _atom_site_occupancy
  Er  Er0  1  0.84320551  0.57457733  0.37540379  1
  Er  Er1  1  0.34335819  0.04661708  0.87505257  1
  Er  Er2  1  0.34350213  0.54674244  0.96694481  1
  Er  Er3  1  0.84367239  0.07518923  0.46671891  1
  Ni  Ni4  1  0.84355450  0.85526460  0.09092517  1
  Ni  Ni5  1  0.84328151  0.35562912  0.75209141  1
  Ni  Ni6  1  0.34300035  0.26893780  0.25185701  1
  Ni  Ni7  1  0.34318772  0.76731658  0.59014243  1
  Sn  Sn8  1  0.84336263  0.24956515  0.08155701  1
  Sn  Sn9  1  0.84382498  0.74951690  0.76013845  1
  Sn  Sn10  1  0.34355551  0.37205186  0.58190656  1
  Sn  Sn11  1  0.34355950  0.87263328  0.26027361  1
