# generated using pymatgen
data_ErTmCd2
_symmetry_space_group_name_H-M   'P 1'
_cell_length_a   5.21814585
_cell_length_b   5.22517061
_cell_length_c   5.20253325
_cell_angle_alpha   59.85391235
_cell_angle_beta   59.85745621
_cell_angle_gamma   59.97573090
_symmetry_Int_Tables_number   1
_chemical_formula_structural   ErTmCd2
_chemical_formula_sum   'Er1 Tm1 Cd2'
_cell_volume   100.06596611
_cell_formula_units_Z   1
loop_
 _symmetry_equiv_pos_site_id
 _symmetry_equiv_pos_as_xyz
  1  'x, y, z'
loop_
 _atom_site_type_symbol
 _atom_site_label
 _atom_site_symmetry_multiplicity
 _atom_site_fract_x
 _atom_site_fract_y
 _atom_site_fract_z
 _atom_site_occupancy
  Er  Er0  1  0.62757093  0.38169029  0.72115827  1
  Tm  Tm1  1  0.12695991  0.88150936  0.22144268  1
  Cd  Cd2  1  0.37756655  0.13143387  0.47109026  1
  Cd  Cd3  1  0.87746114  0.63178444  0.97128272  1
