# generated using pymatgen
data_Eu(AsRu)2
_symmetry_space_group_name_H-M   'P 1'
_cell_length_a   4.22529840
_cell_length_b   4.21077871
_cell_length_c   6.10259342
_cell_angle_alpha   110.38709259
_cell_angle_beta   110.36274719
_cell_angle_gamma   90.02168274
_symmetry_Int_Tables_number   1
_chemical_formula_structural   Eu(AsRu)2
_chemical_formula_sum   'Eu1 As2 Ru2'
_cell_volume   94.49707172
_cell_formula_units_Z   1
loop_
 _symmetry_equiv_pos_site_id
 _symmetry_equiv_pos_as_xyz
  1  'x, y, z'
loop_
 _atom_site_type_symbol
 _atom_site_label
 _atom_site_symmetry_multiplicity
 _atom_site_fract_x
 _atom_site_fract_y
 _atom_site_fract_z
 _atom_site_occupancy
  Eu  Eu0  1  0.12590705  0.64442706  0.90959442  1
  As  As1  1  0.75826639  0.27546293  0.17109591  1
  As  As2  1  0.49377552  0.01222638  0.64189905  1
  Ru  Ru3  1  0.37585756  0.39365581  0.40930963  1
  Ru  Ru4  1  0.87672079  0.89376146  0.40848717  1
