# generated using pymatgen
data_Eu(CuO2)2
_symmetry_space_group_name_H-M   'P 1'
_cell_length_a   5.55955648
_cell_length_b   5.67751217
_cell_length_c   6.25960732
_cell_angle_alpha   61.79389954
_cell_angle_beta   88.96686554
_cell_angle_gamma   89.84965515
_symmetry_Int_Tables_number   1
_chemical_formula_structural   Eu(CuO2)2
_chemical_formula_sum   'Eu2 Cu4 O8'
_cell_volume   174.08672176
_cell_formula_units_Z   2
loop_
 _symmetry_equiv_pos_site_id
 _symmetry_equiv_pos_as_xyz
  1  'x, y, z'
loop_
 _atom_site_type_symbol
 _atom_site_label
 _atom_site_symmetry_multiplicity
 _atom_site_fract_x
 _atom_site_fract_y
 _atom_site_fract_z
 _atom_site_occupancy
  Eu  Eu0  1  0.65569395  0.43922773  0.42421842  1
  Eu  Eu1  1  0.15566860  0.93858337  0.42453441  1
  Cu  Cu2  1  0.15415683  0.43710470  0.92382658  1
  Cu  Cu3  1  0.65540892  0.43695557  0.92326260  1
  Cu  Cu4  1  0.15589644  0.93823785  0.92340708  1
  Cu  Cu5  1  0.65555304  0.93922561  0.92343092  1
  O  O6  1  0.40755862  0.05665832  0.68805832  1
  O  O7  1  0.90672493  0.31889474  0.16140154  1
  O  O8  1  0.40750462  0.81850809  0.16132216  1
  O  O9  1  0.90674102  0.06022266  0.68821526  1
  O  O10  1  0.40731102  0.31924701  0.16153499  1
  O  O11  1  0.40775344  0.55957329  0.68762809  1
  O  O12  1  0.90682334  0.81881177  0.16072999  1
  O  O13  1  0.90665329  0.55766046  0.68786728  1
