# generated using pymatgen
data_Eu(GdS2)2
_symmetry_space_group_name_H-M   'P 1'
_cell_length_a   7.38524961
_cell_length_b   7.40533447
_cell_length_c   7.44666052
_cell_angle_alpha   70.90713501
_cell_angle_beta   70.15907288
_cell_angle_gamma   109.66397095
_symmetry_Int_Tables_number   1
_chemical_formula_structural   Eu(GdS2)2
_chemical_formula_sum   'Eu2 Gd4 S8'
_cell_volume   312.78341071
_cell_formula_units_Z   2
loop_
 _symmetry_equiv_pos_site_id
 _symmetry_equiv_pos_as_xyz
  1  'x, y, z'
loop_
 _atom_site_type_symbol
 _atom_site_label
 _atom_site_symmetry_multiplicity
 _atom_site_fract_x
 _atom_site_fract_y
 _atom_site_fract_z
 _atom_site_occupancy
  Eu  Eu0  1  0.77530050  0.57203263  0.02979621  1
  Eu  Eu1  1  0.15663072  0.07322883  0.40415147  1
  Gd  Gd2  1  0.65530682  0.94730121  0.27890581  1
  Gd  Gd3  1  0.90062100  0.44841924  0.52955991  1
  Gd  Gd4  1  0.40074271  0.82179749  0.90398324  1
  Gd  Gd5  1  0.27688757  0.32255930  0.77865142  1
  S  S6  1  0.66299510  0.69185942  0.65456164  1
  S  S7  1  0.52928090  0.19214565  0.00124574  1
  S  S8  1  0.52942657  0.19513838  0.51569110  1
  S  S9  1  0.02900968  0.84229499  0.15296900  1
  S  S10  1  0.17611329  0.69245309  0.65520477  1
  S  S11  1  0.37676793  0.56297237  0.30344632  1
  S  S12  1  0.87828159  0.06554893  0.80469227  1
  S  S13  1  0.02989001  0.33874387  0.15179127  1
