# generated using pymatgen
data_Eu(SiIr)2
_symmetry_space_group_name_H-M   'P 1'
_cell_length_a   4.10068512
_cell_length_b   4.07892418
_cell_length_c   5.88898849
_cell_angle_alpha   110.26845551
_cell_angle_beta   110.18647003
_cell_angle_gamma   90.26882935
_symmetry_Int_Tables_number   1
_chemical_formula_structural   Eu(SiIr)2
_chemical_formula_sum   'Eu1 Si2 Ir2'
_cell_volume   85.85872410
_cell_formula_units_Z   1
loop_
 _symmetry_equiv_pos_site_id
 _symmetry_equiv_pos_as_xyz
  1  'x, y, z'
loop_
 _atom_site_type_symbol
 _atom_site_label
 _atom_site_symmetry_multiplicity
 _atom_site_fract_x
 _atom_site_fract_y
 _atom_site_fract_z
 _atom_site_occupancy
  Eu  Eu0  1  0.77082533  0.44940278  0.30107561  1
  Si  Si1  1  0.39439723  0.07608247  0.55003768  1
  Si  Si2  1  0.14378572  0.82429206  0.05065144  1
  Ir  Ir3  1  0.02000499  0.19992073  0.80160719  1
  Ir  Ir4  1  0.52032316  0.70080596  0.80047148  1
