# generated using pymatgen
data_Eu(ZnSb)2
_symmetry_space_group_name_H-M   'P 1'
_cell_length_a   4.55180693
_cell_length_b   4.55341196
_cell_length_c   7.39598083
_cell_angle_alpha   89.86618805
_cell_angle_beta   89.85343170
_cell_angle_gamma   120.46944427
_symmetry_Int_Tables_number   1
_chemical_formula_structural   Eu(ZnSb)2
_chemical_formula_sum   'Eu1 Zn2 Sb2'
_cell_volume   132.11983063
_cell_formula_units_Z   1
loop_
 _symmetry_equiv_pos_site_id
 _symmetry_equiv_pos_as_xyz
  1  'x, y, z'
loop_
 _atom_site_type_symbol
 _atom_site_label
 _atom_site_symmetry_multiplicity
 _atom_site_fract_x
 _atom_site_fract_y
 _atom_site_fract_z
 _atom_site_occupancy
  Eu  Eu0  1  0.01058756  0.20264161  0.02354030  1
  Zn  Zn1  1  0.34324676  0.87010431  0.65092260  1
  Zn  Zn2  1  0.67672449  0.53600520  0.38122934  1
  Sb  Sb3  1  0.67627829  0.53636825  0.75926363  1
  Sb  Sb4  1  0.34362897  0.86949372  0.27803400  1
