# generated using pymatgen
data_Eu2CdGa
_symmetry_space_group_name_H-M   'P 1'
_cell_length_a   5.45136023
_cell_length_b   5.45899200
_cell_length_c   5.44827938
_cell_angle_alpha   59.98763657
_cell_angle_beta   60.05626678
_cell_angle_gamma   60.08182526
_symmetry_Int_Tables_number   1
_chemical_formula_structural   Eu2CdGa
_chemical_formula_sum   'Eu2 Cd1 Ga1'
_cell_volume   114.75548249
_cell_formula_units_Z   1
loop_
 _symmetry_equiv_pos_site_id
 _symmetry_equiv_pos_as_xyz
  1  'x, y, z'
loop_
 _atom_site_type_symbol
 _atom_site_label
 _atom_site_symmetry_multiplicity
 _atom_site_fract_x
 _atom_site_fract_y
 _atom_site_fract_z
 _atom_site_occupancy
  Eu  Eu0  1  0.41329026  0.99633557  0.50901234  1
  Eu  Eu1  1  0.91300553  0.49577022  0.00862972  1
  Cd  Cd2  1  0.66345710  0.24552099  0.75842631  1
  Ga  Ga3  1  0.16290526  0.74579602  0.25835833  1
