# generated using pymatgen
data_Eu2Zn3Ge
_symmetry_space_group_name_H-M   'P 1'
_cell_length_a   4.59549236
_cell_length_b   7.42375565
_cell_length_c   7.75865412
_cell_angle_alpha   89.89521790
_cell_angle_beta   89.96085358
_cell_angle_gamma   89.97249603
_symmetry_Int_Tables_number   1
_chemical_formula_structural   Eu2Zn3Ge
_chemical_formula_sum   'Eu4 Zn6 Ge2'
_cell_volume   264.69225341
_cell_formula_units_Z   2
loop_
 _symmetry_equiv_pos_site_id
 _symmetry_equiv_pos_as_xyz
  1  'x, y, z'
loop_
 _atom_site_type_symbol
 _atom_site_label
 _atom_site_symmetry_multiplicity
 _atom_site_fract_x
 _atom_site_fract_y
 _atom_site_fract_z
 _atom_site_occupancy
  Eu  Eu0  1  0.15737453  0.68947232  0.17003155  1
  Eu  Eu1  1  0.15757063  0.18834655  0.25461110  1
  Eu  Eu2  1  0.65755343  0.68658066  0.75464106  1
  Eu  Eu3  1  0.65761185  0.18628401  0.67161536  1
  Zn  Zn4  1  0.15762773  0.49674228  0.55173737  1
  Zn  Zn5  1  0.65758270  0.87989414  0.37758356  1
  Zn  Zn6  1  0.65722287  0.49596986  0.37735122  1
  Zn  Zn7  1  0.15720575  0.99941891  0.87770629  1
  Zn  Zn8  1  0.65760821  0.38032746  0.05012698  1
  Zn  Zn9  1  0.15780969  0.88345957  0.55177546  1
  Ge  Ge10  1  0.65730578  0.98364884  0.05519853  1
  Ge  Ge11  1  0.15753762  0.38769084  0.87197185  1
