# generated using pymatgen
data_Eu4As2O
_symmetry_space_group_name_H-M   'P 1'
_cell_length_a   4.16526365
_cell_length_b   4.67564154
_cell_length_c   9.95816422
_cell_angle_alpha   103.43630219
_cell_angle_beta   102.46846771
_cell_angle_gamma   90.03853607
_symmetry_Int_Tables_number   1
_chemical_formula_structural   Eu4As2O
_chemical_formula_sum   'Eu4 As2 O1'
_cell_volume   183.91678084
_cell_formula_units_Z   1
loop_
 _symmetry_equiv_pos_site_id
 _symmetry_equiv_pos_as_xyz
  1  'x, y, z'
loop_
 _atom_site_type_symbol
 _atom_site_label
 _atom_site_symmetry_multiplicity
 _atom_site_fract_x
 _atom_site_fract_y
 _atom_site_fract_z
 _atom_site_occupancy
  Eu  Eu0  1  0.54524887  0.78414327  0.20222199  1
  Eu  Eu1  1  0.10405761  0.33980203  0.31471044  1
  Eu  Eu2  1  0.91562355  0.15738137  0.94639415  1
  Eu  Eu3  1  0.75525802  0.49430323  0.62445891  1
  As  As4  1  0.37477627  0.61065739  0.86072028  1
  As  As5  1  0.20576672  0.94449759  0.53330225  1
  O  O6  1  0.52731067  0.26223370  0.16247299  1
