# generated using pymatgen
data_EuCu4P3
_symmetry_space_group_name_H-M   'P 1'
_cell_length_a   3.87619781
_cell_length_b   5.38396120
_cell_length_c   6.17707348
_cell_angle_alpha   94.51758575
_cell_angle_beta   107.55084229
_cell_angle_gamma   89.65883636
_symmetry_Int_Tables_number   1
_chemical_formula_structural   EuCu4P3
_chemical_formula_sum   'Eu1 Cu4 P3'
_cell_volume   122.50700296
_cell_formula_units_Z   1
loop_
 _symmetry_equiv_pos_site_id
 _symmetry_equiv_pos_as_xyz
  1  'x, y, z'
loop_
 _atom_site_type_symbol
 _atom_site_label
 _atom_site_symmetry_multiplicity
 _atom_site_fract_x
 _atom_site_fract_y
 _atom_site_fract_z
 _atom_site_occupancy
  Eu  Eu0  1  0.40518692  0.70641607  0.68033785  1
  Cu  Cu1  1  0.12037355  0.52612698  0.11341599  1
  Cu  Cu2  1  0.56010550  0.21591926  0.97944629  1
  Cu  Cu3  1  0.68874264  0.87261409  0.24700308  1
  Cu  Cu4  1  0.25380751  0.18862373  0.38332227  1
  P  P5  1  0.73673379  0.45107156  0.35185111  1
  P  P6  1  0.06803591  0.94717401  0.00576807  1
  P  P7  1  0.90158045  0.21488518  0.67486560  1
