# generated using pymatgen
data_EuGe3
_symmetry_space_group_name_H-M   'P 1'
_cell_length_a   4.75603104
_cell_length_b   6.43245173
_cell_length_c   6.41706324
_cell_angle_alpha   112.29901886
_cell_angle_beta   89.59756470
_cell_angle_gamma   89.99220276
_symmetry_Int_Tables_number   1
_chemical_formula_structural   EuGe3
_chemical_formula_sum   'Eu2 Ge6'
_cell_volume   181.63020251
_cell_formula_units_Z   2
loop_
 _symmetry_equiv_pos_site_id
 _symmetry_equiv_pos_as_xyz
  1  'x, y, z'
loop_
 _atom_site_type_symbol
 _atom_site_label
 _atom_site_symmetry_multiplicity
 _atom_site_fract_x
 _atom_site_fract_y
 _atom_site_fract_z
 _atom_site_occupancy
  Eu  Eu0  1  0.74713540  0.66160363  0.38968530  1
  Eu  Eu1  1  0.74706739  0.20811346  0.84118927  1
  Ge  Ge2  1  0.24708082  0.86133659  0.18297863  1
  Ge  Ge3  1  0.74830312  0.13989758  0.33075714  1
  Ge  Ge4  1  0.24668288  0.85426867  0.75644171  1
  Ge  Ge5  1  0.24811754  0.41979000  0.61828715  1
  Ge  Ge6  1  0.24768230  0.28824744  0.19621754  1
  Ge  Ge7  1  0.74693435  0.71374798  0.89956546  1
