# generated using pymatgen
data_EuMgPd
_symmetry_space_group_name_H-M   'P 1'
_cell_length_a   4.31307507
_cell_length_b   7.49822664
_cell_length_c   8.69918633
_cell_angle_alpha   89.97969818
_cell_angle_beta   89.82117462
_cell_angle_gamma   89.86542511
_symmetry_Int_Tables_number   1
_chemical_formula_structural   EuMgPd
_chemical_formula_sum   'Eu4 Mg4 Pd4'
_cell_volume   281.33312719
_cell_formula_units_Z   4
loop_
 _symmetry_equiv_pos_site_id
 _symmetry_equiv_pos_as_xyz
  1  'x, y, z'
loop_
 _atom_site_type_symbol
 _atom_site_label
 _atom_site_symmetry_multiplicity
 _atom_site_fract_x
 _atom_site_fract_y
 _atom_site_fract_z
 _atom_site_occupancy
  Eu  Eu0  1  0.08171293  0.89054042  0.27285472  1
  Eu  Eu1  1  0.58233351  0.46000901  0.77290827  1
  Eu  Eu2  1  0.08150572  0.39182717  0.13028613  1
  Eu  Eu3  1  0.58180887  0.96010941  0.63058311  1
  Mg  Mg4  1  0.08166682  0.78376240  0.88815087  1
  Mg  Mg5  1  0.08176026  0.28448263  0.51421869  1
  Mg  Mg6  1  0.58198363  0.56497610  0.38796556  1
  Mg  Mg7  1  0.58141619  0.06396491  0.01461646  1
  Pd  Pd8  1  0.08158043  0.15324491  0.82883608  1
  Pd  Pd9  1  0.58175367  0.19710954  0.32860726  1
  Pd  Pd10  1  0.58212709  0.69698614  0.07777561  1
  Pd  Pd11  1  0.08229309  0.65314054  0.57642579  1
