# generated using pymatgen
data_F2
_symmetry_space_group_name_H-M   'P 1'
_cell_length_a   3.58371663
_cell_length_b   3.65543318
_cell_length_c   5.24789858
_cell_angle_alpha   89.17713928
_cell_angle_beta   89.56034851
_cell_angle_gamma   89.26043701
_symmetry_Int_Tables_number   1
_chemical_formula_structural   F2
_chemical_formula_sum   F4
_cell_volume   68.73292004
_cell_formula_units_Z   2
loop_
 _symmetry_equiv_pos_site_id
 _symmetry_equiv_pos_as_xyz
  1  'x, y, z'
loop_
 _atom_site_type_symbol
 _atom_site_label
 _atom_site_symmetry_multiplicity
 _atom_site_fract_x
 _atom_site_fract_y
 _atom_site_fract_z
 _atom_site_occupancy
  F  F0  1  0.30634522  0.43342084  0.98090994  1
  F  F1  1  0.51079625  0.43371817  0.19981562  1
  F  F2  1  0.80472761  0.93289423  0.48067909  1
  F  F3  1  0.00825878  0.93255877  0.69901973  1
