# generated using pymatgen
data_Fe2Si2BiO9
_symmetry_space_group_name_H-M   'P 1'
_cell_length_a   5.29375839
_cell_length_b   5.84408379
_cell_length_c   6.90549898
_cell_angle_alpha   80.71492767
_cell_angle_beta   80.64771271
_cell_angle_gamma   80.73537445
_symmetry_Int_Tables_number   1
_chemical_formula_structural   Fe2Si2BiO9
_chemical_formula_sum   'Fe2 Si2 Bi1 O9'
_cell_volume   206.03282196
_cell_formula_units_Z   1
loop_
 _symmetry_equiv_pos_site_id
 _symmetry_equiv_pos_as_xyz
  1  'x, y, z'
loop_
 _atom_site_type_symbol
 _atom_site_label
 _atom_site_symmetry_multiplicity
 _atom_site_fract_x
 _atom_site_fract_y
 _atom_site_fract_z
 _atom_site_occupancy
  Fe  Fe0  1  0.19251013  0.33426282  0.72512001  1
  Fe  Fe1  1  0.40170288  0.95003462  0.09606235  1
  Si  Si2  1  0.63525987  0.42404363  0.97069591  1
  Si  Si3  1  0.13487345  0.91141438  0.45223308  1
  Bi  Bi4  1  0.77833366  0.55528438  0.41652891  1
  O  O5  1  0.03856790  0.67025048  0.58410490  1
  O  O6  1  0.04761351  0.19335684  0.51709855  1
  O  O7  1  0.58770180  0.64708996  0.08984766  1
  O  O8  1  0.08239905  0.91067398  0.23677914  1
  O  O9  1  0.93955797  0.36531693  0.94141513  1
  O  O10  1  0.53419840  0.45964438  0.74107176  1
  O  O11  1  0.45211518  0.86770666  0.40965074  1
  O  O12  1  0.52277189  0.22296225  0.10373673  1
  O  O13  1  0.35990214  0.03767144  0.83272338  1
