# generated using pymatgen
data_Fe3OF5
_symmetry_space_group_name_H-M   'P 1'
_cell_length_a   4.90460205
_cell_length_b   5.67229128
_cell_length_c   7.86914539
_cell_angle_alpha   87.38053131
_cell_angle_beta   90.03611755
_cell_angle_gamma   89.31459808
_symmetry_Int_Tables_number   1
_chemical_formula_structural   Fe3OF5
_chemical_formula_sum   'Fe6 O2 F10'
_cell_volume   218.67768136
_cell_formula_units_Z   2
loop_
 _symmetry_equiv_pos_site_id
 _symmetry_equiv_pos_as_xyz
  1  'x, y, z'
loop_
 _atom_site_type_symbol
 _atom_site_label
 _atom_site_symmetry_multiplicity
 _atom_site_fract_x
 _atom_site_fract_y
 _atom_site_fract_z
 _atom_site_occupancy
  Fe  Fe0  1  0.15290335  0.30826625  0.51939905  1
  Fe  Fe1  1  0.14667372  0.95703173  0.85352886  1
  Fe  Fe2  1  0.66089898  0.11023531  0.18711737  1
  Fe  Fe3  1  0.11298008  0.64249021  0.17856380  1
  Fe  Fe4  1  0.66516197  0.80038875  0.50205946  1
  Fe  Fe5  1  0.66721803  0.48255870  0.86569053  1
  O  O6  1  0.97045070  0.66013259  0.96907115  1
  O  O7  1  0.86292785  0.83429039  0.27826437  1
  F  F8  1  0.46118534  0.77541196  0.74499130  1
  F  F9  1  0.36235300  0.91661394  0.09069403  1
  F  F10  1  0.33950555  0.61432832  0.40516958  1
  F  F11  1  0.43337911  0.42220393  0.10159153  1
  F  F12  1  0.84455138  0.50690567  0.61724973  1
  F  F13  1  0.95716935  0.00668912  0.61711037  1
  F  F14  1  0.84237385  0.16245124  0.95331329  1
  F  F15  1  0.94329667  0.33643904  0.27959332  1
  F  F16  1  0.34972337  0.26884726  0.76299500  1
  F  F17  1  0.45912552  0.10812022  0.42092517  1
