# generated using pymatgen
data_Fe3Sn
_symmetry_space_group_name_H-M   'P 1'
_cell_length_a   4.50398970
_cell_length_b   5.36954212
_cell_length_c   5.35621834
_cell_angle_alpha   59.81430817
_cell_angle_beta   89.79706573
_cell_angle_gamma   90.10459137
_symmetry_Int_Tables_number   1
_chemical_formula_structural   Fe3Sn
_chemical_formula_sum   'Fe6 Sn2'
_cell_volume   111.96991926
_cell_formula_units_Z   2
loop_
 _symmetry_equiv_pos_site_id
 _symmetry_equiv_pos_as_xyz
  1  'x, y, z'
loop_
 _atom_site_type_symbol
 _atom_site_label
 _atom_site_symmetry_multiplicity
 _atom_site_fract_x
 _atom_site_fract_y
 _atom_site_fract_z
 _atom_site_occupancy
  Fe  Fe0  1  0.89813310  0.36934701  0.37742266  1
  Fe  Fe1  1  0.39849800  0.75249994  0.68617398  1
  Fe  Fe2  1  0.39866400  0.21325587  0.23068543  1
  Fe  Fe3  1  0.39860550  0.21246468  0.68576384  1
  Fe  Fe4  1  0.89864796  0.90475923  0.37648544  1
  Fe  Fe5  1  0.89878309  0.90528756  0.84299099  1
  Sn  Sn6  1  0.89817047  0.39349303  0.86503726  1
  Sn  Sn7  1  0.39721254  0.72782063  0.19685267  1
