# generated using pymatgen
data_FeCo3
_symmetry_space_group_name_H-M   'P 1'
_cell_length_a   3.49605322
_cell_length_b   3.45636606
_cell_length_c   4.32634401
_cell_angle_alpha   113.45530701
_cell_angle_beta   113.72703552
_cell_angle_gamma   89.88746643
_symmetry_Int_Tables_number   1
_chemical_formula_structural   FeCo3
_chemical_formula_sum   'Fe1 Co3'
_cell_volume   43.11856252
_cell_formula_units_Z   1
loop_
 _symmetry_equiv_pos_site_id
 _symmetry_equiv_pos_as_xyz
  1  'x, y, z'
loop_
 _atom_site_type_symbol
 _atom_site_label
 _atom_site_symmetry_multiplicity
 _atom_site_fract_x
 _atom_site_fract_y
 _atom_site_fract_z
 _atom_site_occupancy
  Fe  Fe0  1  0.29255509  0.18144971  0.26430988  1
  Co  Co1  1  0.54243135  0.93167132  0.76439375  1
  Co  Co2  1  0.04204590  0.43155414  0.76472551  1
  Co  Co3  1  0.79278725  0.68122798  0.26405829  1
