# generated using pymatgen
data_FeHO2
_symmetry_space_group_name_H-M   'P 1'
_cell_length_a   2.99592733
_cell_length_b   5.54521561
_cell_length_c   9.14480209
_cell_angle_alpha   90.49052429
_cell_angle_beta   89.58728790
_cell_angle_gamma   89.51219940
_symmetry_Int_Tables_number   1
_chemical_formula_structural   FeHO2
_chemical_formula_sum   'Fe4 H4 O8'
_cell_volume   151.90807828
_cell_formula_units_Z   4
loop_
 _symmetry_equiv_pos_site_id
 _symmetry_equiv_pos_as_xyz
  1  'x, y, z'
loop_
 _atom_site_type_symbol
 _atom_site_label
 _atom_site_symmetry_multiplicity
 _atom_site_fract_x
 _atom_site_fract_y
 _atom_site_fract_z
 _atom_site_occupancy
  Fe  Fe0  1  0.12668535  0.45291606  0.91289282  1
  Fe  Fe1  1  0.62633121  0.68010646  0.18203688  1
  Fe  Fe2  1  0.62625217  0.94380581  0.91303909  1
  Fe  Fe3  1  0.12656009  0.97751349  0.41923177  1
  H  H4  1  0.62672395  0.71236503  0.65785307  1
  H  H5  1  0.62686855  0.05648516  0.64253205  1
  H  H6  1  0.12666166  0.45542693  0.41073719  1
  H  H7  1  0.62674773  0.21004875  0.15756026  1
  O  O8  1  0.62589580  0.88272631  0.57234323  1
  O  O9  1  0.62498480  0.62040222  0.79319423  1
  O  O10  1  0.62553340  0.01708767  0.26606929  1
  O  O11  1  0.12570021  0.29170626  0.48440227  1
  O  O12  1  0.12581958  0.63454342  0.32540879  1
  O  O13  1  0.12608556  0.13475533  0.83848357  1
  O  O14  1  0.12559739  0.77063811  0.03267046  1
  O  O15  1  0.62547553  0.35270429  0.06840144  1
