# generated using pymatgen
data_FeIr
_symmetry_space_group_name_H-M   'P 1'
_cell_length_a   2.67942047
_cell_length_b   2.66646957
_cell_length_c   4.34229040
_cell_angle_alpha   90.01723480
_cell_angle_beta   89.87046051
_cell_angle_gamma   118.52096558
_symmetry_Int_Tables_number   1
_chemical_formula_structural   FeIr
_chemical_formula_sum   'Fe1 Ir1'
_cell_volume   27.25883373
_cell_formula_units_Z   1
loop_
 _symmetry_equiv_pos_site_id
 _symmetry_equiv_pos_as_xyz
  1  'x, y, z'
loop_
 _atom_site_type_symbol
 _atom_site_label
 _atom_site_symmetry_multiplicity
 _atom_site_fract_x
 _atom_site_fract_y
 _atom_site_fract_z
 _atom_site_occupancy
  Fe  Fe0  1  0.16240865  0.25049889  0.52270889  1
  Ir  Ir1  1  0.49508896  0.91660619  0.02260305  1
