# generated using pymatgen
data_Ga2NiO4
_symmetry_space_group_name_H-M   'P 1'
_cell_length_a   5.87615252
_cell_length_b   5.99496078
_cell_length_c   5.94595003
_cell_angle_alpha   119.38803864
_cell_angle_beta   89.84190369
_cell_angle_gamma   119.42166138
_symmetry_Int_Tables_number   1
_chemical_formula_structural   Ga2NiO4
_chemical_formula_sum   'Ga4 Ni2 O8'
_cell_volume   150.92806640
_cell_formula_units_Z   2
loop_
 _symmetry_equiv_pos_site_id
 _symmetry_equiv_pos_as_xyz
  1  'x, y, z'
loop_
 _atom_site_type_symbol
 _atom_site_label
 _atom_site_symmetry_multiplicity
 _atom_site_fract_x
 _atom_site_fract_y
 _atom_site_fract_z
 _atom_site_occupancy
  Ga  Ga0  1  0.72169840  0.38180026  0.89067310  1
  Ga  Ga1  1  0.34810758  0.64458621  0.77806103  1
  Ga  Ga2  1  0.84812295  0.14468035  0.27752116  1
  Ga  Ga3  1  0.34738657  0.64476788  0.27761886  1
  Ni  Ni4  1  0.97504526  0.90272611  0.65756762  1
  Ni  Ni5  1  0.34797776  0.14478596  0.27797291  1
  O  O6  1  0.11091592  0.17918418  0.53427613  1
  O  O7  1  0.10761192  0.17923321  0.05556433  1
  O  O8  1  0.59471464  0.66131377  0.03026651  1
  O  O9  1  0.11728733  0.65012336  0.02972779  1
  O  O10  1  0.11247955  0.63684809  0.52446604  1
  O  O11  1  0.57928365  0.63763022  0.52604854  1
  O  O12  1  0.59776068  0.13032858  0.03120626  1
  O  O13  1  0.59932834  0.12878689  0.51023793  1
