# generated using pymatgen
data_Ga3SiNi4
_symmetry_space_group_name_H-M   'P 1'
_cell_length_a   3.85388708
_cell_length_b   5.01371145
_cell_length_c   4.96033907
_cell_angle_alpha   103.40777588
_cell_angle_beta   89.64931488
_cell_angle_gamma   89.99702454
_symmetry_Int_Tables_number   1
_chemical_formula_structural   Ga3SiNi4
_chemical_formula_sum   'Ga3 Si1 Ni4'
_cell_volume   93.23088386
_cell_formula_units_Z   1
loop_
 _symmetry_equiv_pos_site_id
 _symmetry_equiv_pos_as_xyz
  1  'x, y, z'
loop_
 _atom_site_type_symbol
 _atom_site_label
 _atom_site_symmetry_multiplicity
 _atom_site_fract_x
 _atom_site_fract_y
 _atom_site_fract_z
 _atom_site_occupancy
  Ga  Ga0  1  0.46797833  0.98325568  0.65546197  1
  Ga  Ga1  1  0.96733630  0.73482841  0.90363020  1
  Ga  Ga2  1  0.46829519  0.48659116  0.15158284  1
  Si  Si3  1  0.96785694  0.23494186  0.40443933  1
  Ni  Ni4  1  0.96726733  0.73383361  0.40303287  1
  Ni  Ni5  1  0.46693680  0.99254227  0.16193774  1
  Ni  Ni6  1  0.46685317  0.47596577  0.64346880  1
  Ni  Ni7  1  0.96710181  0.23385714  0.90266466  1
