# generated using pymatgen
data_GaCuO2
_symmetry_space_group_name_H-M   'P 1'
_cell_length_a   2.92172027
_cell_length_b   2.92109585
_cell_length_c   11.25828362
_cell_angle_alpha   89.98274994
_cell_angle_beta   89.92424011
_cell_angle_gamma   119.66410828
_symmetry_Int_Tables_number   1
_chemical_formula_structural   GaCuO2
_chemical_formula_sum   'Ga2 Cu2 O4'
_cell_volume   83.49233930
_cell_formula_units_Z   2
loop_
 _symmetry_equiv_pos_site_id
 _symmetry_equiv_pos_as_xyz
  1  'x, y, z'
loop_
 _atom_site_type_symbol
 _atom_site_label
 _atom_site_symmetry_multiplicity
 _atom_site_fract_x
 _atom_site_fract_y
 _atom_site_fract_z
 _atom_site_occupancy
  Ga  Ga0  1  0.94616699  0.57185543  0.70104945  1
  Ga  Ga1  1  0.94607300  0.57173383  0.21116865  1
  Cu  Cu2  1  0.61231124  0.90489852  0.94935554  1
  Cu  Cu3  1  0.61260903  0.90453321  0.49276495  1
  O  O4  1  0.61262906  0.90568686  0.77774447  1
  O  O5  1  0.61341774  0.90514427  0.32355061  1
  O  O6  1  0.61280382  0.90439677  0.11045535  1
  O  O7  1  0.27857962  0.23792066  0.58508599  1
