# generated using pymatgen
data_GaHg3
_symmetry_space_group_name_H-M   'P 1'
_cell_length_a   4.62325525
_cell_length_b   4.64226723
_cell_length_c   5.70525932
_cell_angle_alpha   114.12631989
_cell_angle_beta   114.36827850
_cell_angle_gamma   89.65347290
_symmetry_Int_Tables_number   1
_chemical_formula_structural   GaHg3
_chemical_formula_sum   'Ga1 Hg3'
_cell_volume   99.83029836
_cell_formula_units_Z   1
loop_
 _symmetry_equiv_pos_site_id
 _symmetry_equiv_pos_as_xyz
  1  'x, y, z'
loop_
 _atom_site_type_symbol
 _atom_site_label
 _atom_site_symmetry_multiplicity
 _atom_site_fract_x
 _atom_site_fract_y
 _atom_site_fract_z
 _atom_site_occupancy
  Ga  Ga0  1  0.15874878  0.03184196  0.62987977  1
  Hg  Hg1  1  0.90850395  0.28182107  0.12951367  1
  Hg  Hg2  1  0.65891147  0.53198040  0.62864202  1
  Hg  Hg3  1  0.40902314  0.78182852  0.12925093  1
