# generated using pymatgen
data_GaNi3
_symmetry_space_group_name_H-M   'P 1'
_cell_length_a   3.57856274
_cell_length_b   3.57390833
_cell_length_c   3.59520078
_cell_angle_alpha   90.02765656
_cell_angle_beta   89.82647705
_cell_angle_gamma   89.91388702
_symmetry_Int_Tables_number   1
_chemical_formula_structural   GaNi3
_chemical_formula_sum   'Ga1 Ni3'
_cell_volume   45.98039091
_cell_formula_units_Z   1
loop_
 _symmetry_equiv_pos_site_id
 _symmetry_equiv_pos_as_xyz
  1  'x, y, z'
loop_
 _atom_site_type_symbol
 _atom_site_label
 _atom_site_symmetry_multiplicity
 _atom_site_fract_x
 _atom_site_fract_y
 _atom_site_fract_z
 _atom_site_occupancy
  Ga  Ga0  1  0.42654625  0.02647999  0.08755705  1
  Ni  Ni1  1  0.92684376  0.02706788  0.58784539  1
  Ni  Ni2  1  0.92640525  0.52677095  0.08769847  1
  Ni  Ni3  1  0.42630801  0.52624601  0.58760554  1
