# generated using pymatgen
data_GdCuSb2
_symmetry_space_group_name_H-M   'P 1'
_cell_length_a   4.37322187
_cell_length_b   4.36695480
_cell_length_c   9.88293362
_cell_angle_alpha   89.84040833
_cell_angle_beta   89.98531342
_cell_angle_gamma   90.29920959
_symmetry_Int_Tables_number   1
_chemical_formula_structural   GdCuSb2
_chemical_formula_sum   'Gd2 Cu2 Sb4'
_cell_volume   188.73761577
_cell_formula_units_Z   2
loop_
 _symmetry_equiv_pos_site_id
 _symmetry_equiv_pos_as_xyz
  1  'x, y, z'
loop_
 _atom_site_type_symbol
 _atom_site_label
 _atom_site_symmetry_multiplicity
 _atom_site_fract_x
 _atom_site_fract_y
 _atom_site_fract_z
 _atom_site_occupancy
  Gd  Gd0  1  0.37301189  0.56139541  0.76721293  1
  Gd  Gd1  1  0.87276828  0.06144486  0.24145575  1
  Cu  Cu2  1  0.37319520  0.06132795  0.99751627  1
  Cu  Cu3  1  0.37290612  0.56138486  0.37471935  1
  Sb  Sb4  1  0.87274736  0.56191450  0.51675934  1
  Sb  Sb5  1  0.37305573  0.56131566  0.12072039  1
  Sb  Sb6  1  0.87350160  0.06150188  0.85688204  1
  Sb  Sb7  1  0.37269923  0.06145376  0.51751524  1
