# generated using pymatgen
data_GdNi2
_symmetry_space_group_name_H-M   'P 1'
_cell_length_a   5.09777069
_cell_length_b   5.09582901
_cell_length_c   5.07796478
_cell_angle_alpha   59.93688202
_cell_angle_beta   60.02636337
_cell_angle_gamma   59.97664642
_symmetry_Int_Tables_number   1
_chemical_formula_structural   GdNi2
_chemical_formula_sum   'Gd2 Ni4'
_cell_volume   93.23349010
_cell_formula_units_Z   2
loop_
 _symmetry_equiv_pos_site_id
 _symmetry_equiv_pos_as_xyz
  1  'x, y, z'
loop_
 _atom_site_type_symbol
 _atom_site_label
 _atom_site_symmetry_multiplicity
 _atom_site_fract_x
 _atom_site_fract_y
 _atom_site_fract_z
 _atom_site_occupancy
  Gd  Gd0  1  0.93385154  0.22761354  0.70573127  1
  Gd  Gd1  1  0.68439543  0.97778863  0.45560884  1
  Ni  Ni2  1  0.80885321  0.60234678  0.07984816  1
  Ni  Ni3  1  0.30869707  0.60248446  0.58028901  1
  Ni  Ni4  1  0.30884522  0.60276395  0.08011638  1
  Ni  Ni5  1  0.30878210  0.10225932  0.08022512  1
