# generated using pymatgen
data_GdPt3
_symmetry_space_group_name_H-M   'P 1'
_cell_length_a   4.18032503
_cell_length_b   4.15436649
_cell_length_c   4.18188334
_cell_angle_alpha   90.08995056
_cell_angle_beta   89.57128143
_cell_angle_gamma   90.18368530
_symmetry_Int_Tables_number   1
_chemical_formula_structural   GdPt3
_chemical_formula_sum   'Gd1 Pt3'
_cell_volume   72.62261143
_cell_formula_units_Z   1
loop_
 _symmetry_equiv_pos_site_id
 _symmetry_equiv_pos_as_xyz
  1  'x, y, z'
loop_
 _atom_site_type_symbol
 _atom_site_label
 _atom_site_symmetry_multiplicity
 _atom_site_fract_x
 _atom_site_fract_y
 _atom_site_fract_z
 _atom_site_occupancy
  Gd  Gd0  1  0.79815930  0.97937143  0.39994019  1
  Pt  Pt1  1  0.29809955  0.97845834  0.89989722  1
  Pt  Pt2  1  0.79772937  0.47840476  0.90008616  1
  Pt  Pt3  1  0.29825294  0.47900680  0.39994067  1
