# generated using pymatgen
data_GeS2
_symmetry_space_group_name_H-M   'P 1'
_cell_length_a   3.64454269
_cell_length_b   3.64290595
_cell_length_c   9.99894142
_cell_angle_alpha   89.93650818
_cell_angle_beta   90.18770599
_cell_angle_gamma   90.55553436
_symmetry_Int_Tables_number   1
_chemical_formula_structural   GeS2
_chemical_formula_sum   'Ge2 S4'
_cell_volume   132.74617889
_cell_formula_units_Z   2
loop_
 _symmetry_equiv_pos_site_id
 _symmetry_equiv_pos_as_xyz
  1  'x, y, z'
loop_
 _atom_site_type_symbol
 _atom_site_label
 _atom_site_symmetry_multiplicity
 _atom_site_fract_x
 _atom_site_fract_y
 _atom_site_fract_z
 _atom_site_occupancy
  Ge  Ge0  1  0.67849898  0.79407990  0.29436773  1
  Ge  Ge1  1  0.17850170  0.29429251  0.56839103  1
  S  S2  1  0.67834651  0.79525912  0.05550821  1
  S  S3  1  0.67862117  0.79471058  0.54065067  1
  S  S4  1  0.17865042  0.29509059  0.79611272  1
  S  S5  1  0.17844938  0.29541215  0.30055389  1
