# generated using pymatgen
data_Hf(SiNi)2
_symmetry_space_group_name_H-M   'P 1'
_cell_length_a   3.74367571
_cell_length_b   3.71779251
_cell_length_c   5.51351643
_cell_angle_alpha   109.92986298
_cell_angle_beta   110.14268494
_cell_angle_gamma   90.25328064
_symmetry_Int_Tables_number   1
_chemical_formula_structural   Hf(SiNi)2
_chemical_formula_sum   'Hf1 Si2 Ni2'
_cell_volume   67.08204203
_cell_formula_units_Z   1
loop_
 _symmetry_equiv_pos_site_id
 _symmetry_equiv_pos_as_xyz
  1  'x, y, z'
loop_
 _atom_site_type_symbol
 _atom_site_label
 _atom_site_symmetry_multiplicity
 _atom_site_fract_x
 _atom_site_fract_y
 _atom_site_fract_z
 _atom_site_occupancy
  Hf  Hf0  1  0.96548039  0.26709041  0.90981179  1
  Si  Si1  1  0.58311105  0.88540381  0.14743546  1
  Si  Si2  1  0.34493577  0.64727354  0.67350811  1
  Ni  Ni3  1  0.21482731  0.01618663  0.41049376  1
  Ni  Ni4  1  0.71568531  0.51712871  0.40985587  1
