# generated using pymatgen
data_Hf10VSb5
_symmetry_space_group_name_H-M   'P 1'
_cell_length_a   5.63061476
_cell_length_b   8.35989475
_cell_length_c   8.39140797
_cell_angle_alpha   118.68308258
_cell_angle_beta   90.17246246
_cell_angle_gamma   89.96408081
_symmetry_Int_Tables_number   1
_chemical_formula_structural   Hf10VSb5
_chemical_formula_sum   'Hf10 V1 Sb5'
_cell_volume   346.52251067
_cell_formula_units_Z   1
loop_
 _symmetry_equiv_pos_site_id
 _symmetry_equiv_pos_as_xyz
  1  'x, y, z'
loop_
 _atom_site_type_symbol
 _atom_site_label
 _atom_site_symmetry_multiplicity
 _atom_site_fract_x
 _atom_site_fract_y
 _atom_site_fract_z
 _atom_site_occupancy
  Hf  Hf0  1  0.83873719  0.58643496  0.38371205  1
  Hf  Hf1  1  0.08870902  0.03006106  0.53336298  1
  Hf  Hf2  1  0.83891034  0.75084573  0.81276739  1
  Hf  Hf3  1  0.08703764  0.42972523  0.92621028  1
  Hf  Hf4  1  0.33885571  0.41443649  0.56304300  1
  Hf  Hf5  1  0.59119391  0.42519093  0.92988616  1
  Hf  Hf6  1  0.33903018  0.75933105  0.19612619  1
  Hf  Hf7  1  0.83891726  0.15151542  0.21036133  1
  Hf  Hf8  1  0.33904612  0.02392271  0.93604583  1
  Hf  Hf9  1  0.58970046  0.02864482  0.53399277  1
  V  V10  1  0.33917055  0.10242491  0.28502464  1
  Sb  Sb11  1  0.33961079  0.37920240  0.19024774  1
  Sb  Sb12  1  0.83909315  0.10106011  0.85486799  1
  Sb  Sb13  1  0.83866715  0.36776415  0.59622109  1
  Sb  Sb14  1  0.83945090  0.76924860  0.18866707  1
  Sb  Sb15  1  0.33929384  0.76224446  0.59271353  1
