# generated using pymatgen
data_Hf2ReRu
_symmetry_space_group_name_H-M   'P 1'
_cell_length_a   4.60667610
_cell_length_b   4.62116003
_cell_length_c   4.59827185
_cell_angle_alpha   59.81897736
_cell_angle_beta   59.84121323
_cell_angle_gamma   59.89348221
_symmetry_Int_Tables_number   1
_chemical_formula_structural   Hf2ReRu
_chemical_formula_sum   'Hf2 Re1 Ru1'
_cell_volume   68.98412654
_cell_formula_units_Z   1
loop_
 _symmetry_equiv_pos_site_id
 _symmetry_equiv_pos_as_xyz
  1  'x, y, z'
loop_
 _atom_site_type_symbol
 _atom_site_label
 _atom_site_symmetry_multiplicity
 _atom_site_fract_x
 _atom_site_fract_y
 _atom_site_fract_z
 _atom_site_occupancy
  Hf  Hf0  1  0.86901015  0.35385314  0.33803377  1
  Hf  Hf1  1  0.36845121  0.85431916  0.83832628  1
  Re  Re2  1  0.61847615  0.10428847  0.08860573  1
  Ru  Ru3  1  0.11893385  0.60415757  0.58838385  1
