# generated using pymatgen
data_Hf6Al2Pt
_symmetry_space_group_name_H-M   'P 1'
_cell_length_a   3.33534908
_cell_length_b   7.99527359
_cell_length_c   8.01241207
_cell_angle_alpha   120.00672150
_cell_angle_beta   90.23194122
_cell_angle_gamma   90.01484680
_symmetry_Int_Tables_number   1
_chemical_formula_structural   Hf6Al2Pt
_chemical_formula_sum   'Hf6 Al2 Pt1'
_cell_volume   185.02654736
_cell_formula_units_Z   1
loop_
 _symmetry_equiv_pos_site_id
 _symmetry_equiv_pos_as_xyz
  1  'x, y, z'
loop_
 _atom_site_type_symbol
 _atom_site_label
 _atom_site_symmetry_multiplicity
 _atom_site_fract_x
 _atom_site_fract_y
 _atom_site_fract_z
 _atom_site_occupancy
  Hf  Hf0  1  0.43398997  0.16457415  0.74489743  1
  Hf  Hf1  1  0.93411297  0.02539919  0.34582353  1
  Hf  Hf2  1  0.93430191  0.76438761  0.61009395  1
  Hf  Hf3  1  0.43395054  0.35937840  0.34572846  1
  Hf  Hf4  1  0.43440044  0.76374459  0.94616961  1
  Hf  Hf5  1  0.93414807  0.49862602  0.08212560  1
  Al  Al6  1  0.93392408  0.09827270  0.01018815  1
  Al  Al7  1  0.93394125  0.43155539  0.67901355  1
  Pt  Pt8  1  0.43390283  0.76446581  0.34473830  1
