# generated using pymatgen
data_HfCo
_symmetry_space_group_name_H-M   'P 1'
_cell_length_a   4.43366480
_cell_length_b   4.44902945
_cell_length_c   4.45080566
_cell_angle_alpha   60.06490326
_cell_angle_beta   60.12966537
_cell_angle_gamma   60.12249756
_symmetry_Int_Tables_number   1
_chemical_formula_structural   HfCo
_chemical_formula_sum   'Hf2 Co2'
_cell_volume   62.22861965
_cell_formula_units_Z   2
loop_
 _symmetry_equiv_pos_site_id
 _symmetry_equiv_pos_as_xyz
  1  'x, y, z'
loop_
 _atom_site_type_symbol
 _atom_site_label
 _atom_site_symmetry_multiplicity
 _atom_site_fract_x
 _atom_site_fract_y
 _atom_site_fract_z
 _atom_site_occupancy
  Hf  Hf0  1  0.21099590  0.88695210  0.34987321  1
  Hf  Hf1  1  0.71117502  0.38671929  0.85053122  1
  Co  Co2  1  0.96106452  0.63682550  0.10023405  1
  Co  Co3  1  0.46100658  0.13706192  0.60046655  1
