# generated using pymatgen
data_HfGeO4
_symmetry_space_group_name_H-M   'P 1'
_cell_length_a   5.00186205
_cell_length_b   5.01840210
_cell_length_c   6.75669622
_cell_angle_alpha   111.86219788
_cell_angle_beta   111.93279266
_cell_angle_gamma   90.21011353
_symmetry_Int_Tables_number   1
_chemical_formula_structural   HfGeO4
_chemical_formula_sum   'Hf2 Ge2 O8'
_cell_volume   143.99085728
_cell_formula_units_Z   2
loop_
 _symmetry_equiv_pos_site_id
 _symmetry_equiv_pos_as_xyz
  1  'x, y, z'
loop_
 _atom_site_type_symbol
 _atom_site_label
 _atom_site_symmetry_multiplicity
 _atom_site_fract_x
 _atom_site_fract_y
 _atom_site_fract_z
 _atom_site_occupancy
  Hf  Hf0  1  0.51747924  0.04870825  0.62952799  1
  Hf  Hf1  1  0.01720255  0.54845464  0.62962896  1
  Ge  Ge2  1  0.26790923  0.29639944  0.13256019  1
  Ge  Ge3  1  0.76760602  0.79489541  0.13390680  1
  O  O4  1  0.70615143  0.73148435  0.49129039  1
  O  O5  1  0.08566518  0.61417979  0.27790651  1
  O  O6  1  0.34390473  0.86647862  0.77372915  1
  O  O7  1  0.44750661  0.46970928  0.99023771  1
  O  O8  1  0.94555664  0.97113365  0.99014837  1
  O  O9  1  0.20646393  0.23483346  0.49114281  1
  O  O10  1  0.84453404  0.36279061  0.77341813  1
  O  O11  1  0.58268565  0.11125404  0.27648792  1
