# generated using pymatgen
data_HfMgIr2
_symmetry_space_group_name_H-M   'P 1'
_cell_length_a   4.54244089
_cell_length_b   4.56728411
_cell_length_c   4.54985428
_cell_angle_alpha   59.81828690
_cell_angle_beta   59.86590958
_cell_angle_gamma   60.09435272
_symmetry_Int_Tables_number   1
_chemical_formula_structural   HfMgIr2
_chemical_formula_sum   'Hf1 Mg1 Ir2'
_cell_volume   66.63405306
_cell_formula_units_Z   1
loop_
 _symmetry_equiv_pos_site_id
 _symmetry_equiv_pos_as_xyz
  1  'x, y, z'
loop_
 _atom_site_type_symbol
 _atom_site_label
 _atom_site_symmetry_multiplicity
 _atom_site_fract_x
 _atom_site_fract_y
 _atom_site_fract_z
 _atom_site_occupancy
  Hf  Hf0  1  0.57170433  0.84182280  0.49160796  1
  Mg  Mg1  1  0.07186676  0.34182641  0.99187183  1
  Ir  Ir2  1  0.82131588  0.09176498  0.74185878  1
  Ir  Ir3  1  0.32171118  0.59208113  0.24211280  1
