# generated using pymatgen
data_HfMgN2
_symmetry_space_group_name_H-M   'P 1'
_cell_length_a   4.45458889
_cell_length_b   4.43177795
_cell_length_c   5.44731188
_cell_angle_alpha   114.12144470
_cell_angle_beta   114.07076263
_cell_angle_gamma   89.95432281
_symmetry_Int_Tables_number   1
_chemical_formula_structural   HfMgN2
_chemical_formula_sum   'Hf2 Mg2 N4'
_cell_volume   87.82088436
_cell_formula_units_Z   2
loop_
 _symmetry_equiv_pos_site_id
 _symmetry_equiv_pos_as_xyz
  1  'x, y, z'
loop_
 _atom_site_type_symbol
 _atom_site_label
 _atom_site_symmetry_multiplicity
 _atom_site_fract_x
 _atom_site_fract_y
 _atom_site_fract_z
 _atom_site_occupancy
  Hf  Hf0  1  0.61759126  0.30244175  0.71750897  1
  Hf  Hf1  1  0.36710408  0.55267000  0.21728797  1
  Mg  Mg2  1  0.86849499  0.05285603  0.21743184  1
  Mg  Mg3  1  0.11792060  0.80275220  0.71763259  1
  N  N4  1  0.37727553  0.06359831  0.23472013  1
  N  N5  1  0.11887385  0.30439886  0.71822697  1
  N  N6  1  0.61773992  0.80359632  0.71795911  1
  N  N7  1  0.86138856  0.54485494  0.20396686  1
