# generated using pymatgen
data_HfSnPd
_symmetry_space_group_name_H-M   'P 1'
_cell_length_a   4.50148153
_cell_length_b   4.49399090
_cell_length_c   4.48457003
_cell_angle_alpha   59.69171524
_cell_angle_beta   59.92090225
_cell_angle_gamma   59.88278961
_symmetry_Int_Tables_number   1
_chemical_formula_structural   HfSnPd
_chemical_formula_sum   'Hf1 Sn1 Pd1'
_cell_volume   63.90405049
_cell_formula_units_Z   1
loop_
 _symmetry_equiv_pos_site_id
 _symmetry_equiv_pos_as_xyz
  1  'x, y, z'
loop_
 _atom_site_type_symbol
 _atom_site_label
 _atom_site_symmetry_multiplicity
 _atom_site_fract_x
 _atom_site_fract_y
 _atom_site_fract_z
 _atom_site_occupancy
  Hf  Hf0  1  0.33813059  0.88939404  0.31160653  1
  Sn  Sn1  1  0.83845586  0.38959599  0.81181180  1
  Pd  Pd2  1  0.58805335  0.14003167  0.56211442  1
