# generated using pymatgen
data_HfTi(PbO3)2
_symmetry_space_group_name_H-M   'P 1'
_cell_length_a   4.19529486
_cell_length_b   5.66417646
_cell_length_c   5.68667269
_cell_angle_alpha   90.38734436
_cell_angle_beta   89.91139984
_cell_angle_gamma   90.11108398
_symmetry_Int_Tables_number   1
_chemical_formula_structural   HfTi(PbO3)2
_chemical_formula_sum   'Hf1 Ti1 Pb2 O6'
_cell_volume   135.12827896
_cell_formula_units_Z   1
loop_
 _symmetry_equiv_pos_site_id
 _symmetry_equiv_pos_as_xyz
  1  'x, y, z'
loop_
 _atom_site_type_symbol
 _atom_site_label
 _atom_site_symmetry_multiplicity
 _atom_site_fract_x
 _atom_site_fract_y
 _atom_site_fract_z
 _atom_site_occupancy
  Hf  Hf0  1  0.29357296  0.61832213  0.46171653  1
  Ti  Ti1  1  0.29342747  0.11820877  0.96139592  1
  Pb  Pb2  1  0.79325050  0.61807436  0.96122813  1
  Pb  Pb3  1  0.79369754  0.11834506  0.46172377  1
  O  O4  1  0.29403031  0.81199056  0.78177297  1
  O  O5  1  0.29365864  0.30386409  0.64949197  1
  O  O6  1  0.79337943  0.61854291  0.46199912  1
  O  O7  1  0.29336864  0.93397504  0.27478203  1
  O  O8  1  0.79345310  0.11903773  0.96228474  1
  O  O9  1  0.29326373  0.43177050  0.14623164  1
