# generated using pymatgen
data_HfZrOs2
_symmetry_space_group_name_H-M   'P 1'
_cell_length_a   4.62200689
_cell_length_b   4.60161638
_cell_length_c   4.59597540
_cell_angle_alpha   59.84057236
_cell_angle_beta   60.04972458
_cell_angle_gamma   60.24229431
_symmetry_Int_Tables_number   1
_chemical_formula_structural   HfZrOs2
_chemical_formula_sum   'Hf1 Zr1 Os2'
_cell_volume   69.18753868
_cell_formula_units_Z   1
loop_
 _symmetry_equiv_pos_site_id
 _symmetry_equiv_pos_as_xyz
  1  'x, y, z'
loop_
 _atom_site_type_symbol
 _atom_site_label
 _atom_site_symmetry_multiplicity
 _atom_site_fract_x
 _atom_site_fract_y
 _atom_site_fract_z
 _atom_site_occupancy
  Hf  Hf0  1  0.96236628  0.24692674  0.10608580  1
  Zr  Zr1  1  0.46217111  0.74726290  0.60617822  1
  Os  Os2  1  0.21273871  0.49771872  0.35582098  1
  Os  Os3  1  0.71278596  0.99758416  0.85641772  1
