# generated using pymatgen
data_Hg2SeS
_symmetry_space_group_name_H-M   'P 1'
_cell_length_a   4.34746218
_cell_length_b   4.34546328
_cell_length_c   6.19405556
_cell_angle_alpha   90.01696777
_cell_angle_beta   89.88242340
_cell_angle_gamma   90.14985657
_symmetry_Int_Tables_number   1
_chemical_formula_structural   Hg2SeS
_chemical_formula_sum   'Hg2 Se1 S1'
_cell_volume   117.01581843
_cell_formula_units_Z   1
loop_
 _symmetry_equiv_pos_site_id
 _symmetry_equiv_pos_as_xyz
  1  'x, y, z'
loop_
 _atom_site_type_symbol
 _atom_site_label
 _atom_site_symmetry_multiplicity
 _atom_site_fract_x
 _atom_site_fract_y
 _atom_site_fract_z
 _atom_site_occupancy
  Hg  Hg0  1  0.30379480  0.36925462  0.85311115  1
  Hg  Hg1  1  0.80324036  0.86934090  0.34285006  1
  Se  Se2  1  0.30283475  0.86900550  0.59551734  1
  S  S3  1  0.80165243  0.36979133  0.09761798  1
