# generated using pymatgen
data_Hg4Pt
_symmetry_space_group_name_H-M   'P 1'
_cell_length_a   5.38975382
_cell_length_b   5.37263823
_cell_length_c   5.68407249
_cell_angle_alpha   105.95237732
_cell_angle_beta   105.81166077
_cell_angle_gamma   116.25618744
_symmetry_Int_Tables_number   1
_chemical_formula_structural   Hg4Pt
_chemical_formula_sum   'Hg4 Pt1'
_cell_volume   126.24089393
_cell_formula_units_Z   1
loop_
 _symmetry_equiv_pos_site_id
 _symmetry_equiv_pos_as_xyz
  1  'x, y, z'
loop_
 _atom_site_type_symbol
 _atom_site_label
 _atom_site_symmetry_multiplicity
 _atom_site_fract_x
 _atom_site_fract_y
 _atom_site_fract_z
 _atom_site_occupancy
  Hg  Hg0  1  0.76102227  0.86025006  0.36475796  1
  Hg  Hg1  1  0.59261030  0.03328838  0.86393458  1
  Hg  Hg2  1  0.09270499  0.53315532  0.86421859  1
  Hg  Hg3  1  0.42144629  0.20135377  0.36395001  1
  Pt  Pt4  1  0.09329661  0.53180343  0.36412203  1
