# generated using pymatgen
data_Ho2CuPt
_symmetry_space_group_name_H-M   'P 1'
_cell_length_a   4.86726475
_cell_length_b   4.86823130
_cell_length_c   4.85909796
_cell_angle_alpha   59.65796661
_cell_angle_beta   59.87479401
_cell_angle_gamma   59.92858887
_symmetry_Int_Tables_number   1
_chemical_formula_structural   Ho2CuPt
_chemical_formula_sum   'Ho2 Cu1 Pt1'
_cell_volume   81.08076296
_cell_formula_units_Z   1
loop_
 _symmetry_equiv_pos_site_id
 _symmetry_equiv_pos_as_xyz
  1  'x, y, z'
loop_
 _atom_site_type_symbol
 _atom_site_label
 _atom_site_symmetry_multiplicity
 _atom_site_fract_x
 _atom_site_fract_y
 _atom_site_fract_z
 _atom_site_occupancy
  Ho  Ho0  1  0.93524712  0.21384300  0.21848625  1
  Ho  Ho1  1  0.43503410  0.71406436  0.71822888  1
  Cu  Cu2  1  0.18556736  0.46359384  0.46843946  1
  Pt  Pt3  1  0.68548280  0.96368623  0.96888822  1
