# generated using pymatgen
data_Ho2InAu2
_symmetry_space_group_name_H-M   'P 1'
_cell_length_a   3.95892453
_cell_length_b   7.80371904
_cell_length_c   8.16690922
_cell_angle_alpha   89.99864197
_cell_angle_beta   90.06059265
_cell_angle_gamma   89.95507050
_symmetry_Int_Tables_number   1
_chemical_formula_structural   Ho2InAu2
_chemical_formula_sum   'Ho4 In2 Au4'
_cell_volume   252.31100861
_cell_formula_units_Z   2
loop_
 _symmetry_equiv_pos_site_id
 _symmetry_equiv_pos_as_xyz
  1  'x, y, z'
loop_
 _atom_site_type_symbol
 _atom_site_label
 _atom_site_symmetry_multiplicity
 _atom_site_fract_x
 _atom_site_fract_y
 _atom_site_fract_z
 _atom_site_occupancy
  Ho  Ho0  1  0.94995397  0.60920620  0.95548868  1
  Ho  Ho1  1  0.95033854  0.42663667  0.36138099  1
  Ho  Ho2  1  0.94985169  0.97227502  0.56270325  1
  Ho  Ho3  1  0.94957507  0.09056973  0.04726754  1
  In  In4  1  0.44981274  0.77315420  0.24671163  1
  In  In5  1  0.44986597  0.28935084  0.73061746  1
  Au  Au6  1  0.44991192  0.38909510  0.09736364  1
  Au  Au7  1  0.44996780  0.88745630  0.84119487  1
  Au  Au8  1  0.45008475  0.13696140  0.35629579  1
  Au  Au9  1  0.94989991  0.58775675  0.63252151  1
