# generated using pymatgen
data_Ho2MgRu
_symmetry_space_group_name_H-M   'P 1'
_cell_length_a   4.96515226
_cell_length_b   4.96181726
_cell_length_c   4.96074629
_cell_angle_alpha   59.70973969
_cell_angle_beta   59.92126083
_cell_angle_gamma   60.06253815
_symmetry_Int_Tables_number   1
_chemical_formula_structural   Ho2MgRu
_chemical_formula_sum   'Ho2 Mg1 Ru1'
_cell_volume   86.21628776
_cell_formula_units_Z   1
loop_
 _symmetry_equiv_pos_site_id
 _symmetry_equiv_pos_as_xyz
  1  'x, y, z'
loop_
 _atom_site_type_symbol
 _atom_site_label
 _atom_site_symmetry_multiplicity
 _atom_site_fract_x
 _atom_site_fract_y
 _atom_site_fract_z
 _atom_site_occupancy
  Ho  Ho0  1  0.11138134  0.59633678  0.85991758  1
  Ho  Ho1  1  0.61112618  0.09591991  0.35914817  1
  Mg  Mg2  1  0.86102062  0.34583214  0.60972381  1
  Ru  Ru3  1  0.36102316  0.84593701  0.10997524  1
