# generated using pymatgen
data_HoAgPb
_symmetry_space_group_name_H-M   'P 1'
_cell_length_a   4.80717373
_cell_length_b   4.79392910
_cell_length_c   7.46260071
_cell_angle_alpha   89.90016937
_cell_angle_beta   90.20360565
_cell_angle_gamma   120.67821503
_symmetry_Int_Tables_number   1
_chemical_formula_structural   HoAgPb
_chemical_formula_sum   'Ho2 Ag2 Pb2'
_cell_volume   147.90768224
_cell_formula_units_Z   2
loop_
 _symmetry_equiv_pos_site_id
 _symmetry_equiv_pos_as_xyz
  1  'x, y, z'
loop_
 _atom_site_type_symbol
 _atom_site_label
 _atom_site_symmetry_multiplicity
 _atom_site_fract_x
 _atom_site_fract_y
 _atom_site_fract_z
 _atom_site_occupancy
  Ho  Ho0  1  0.91517359  0.13778846  0.72004420  1
  Ho  Ho1  1  0.91546518  0.13778904  0.21856523  1
  Ag  Ag2  1  0.58227676  0.47099993  0.03484784  1
  Ag  Ag3  1  0.24895702  0.80431676  0.53447843  1
  Pb  Pb4  1  0.58247823  0.47091481  0.44398603  1
  Pb  Pb5  1  0.24870893  0.80430585  0.94477415  1
