# generated using pymatgen
data_HoBiTe3
_symmetry_space_group_name_H-M   'P 1'
_cell_length_a   4.58360147
_cell_length_b   4.60110712
_cell_length_c   9.73067665
_cell_angle_alpha   89.87927246
_cell_angle_beta   89.73867035
_cell_angle_gamma   120.30304718
_symmetry_Int_Tables_number   1
_chemical_formula_structural   HoBiTe3
_chemical_formula_sum   'Ho1 Bi1 Te3'
_cell_volume   177.17333717
_cell_formula_units_Z   1
loop_
 _symmetry_equiv_pos_site_id
 _symmetry_equiv_pos_as_xyz
  1  'x, y, z'
loop_
 _atom_site_type_symbol
 _atom_site_label
 _atom_site_symmetry_multiplicity
 _atom_site_fract_x
 _atom_site_fract_y
 _atom_site_fract_z
 _atom_site_occupancy
  Ho  Ho0  1  0.58625716  0.90153831  0.29781687  1
  Bi  Bi1  1  0.25230926  0.23470452  0.66144967  1
  Te  Te2  1  0.91951710  0.56785792  0.46629864  1
  Te  Te3  1  0.25230780  0.23449178  0.15164921  1
  Te  Te4  1  0.58554780  0.90097666  0.84112573  1
