# generated using pymatgen
data_HoCdAg2
_symmetry_space_group_name_H-M   'P 1'
_cell_length_a   4.93508720
_cell_length_b   4.94292736
_cell_length_c   4.92468166
_cell_angle_alpha   60.00642014
_cell_angle_beta   59.90305328
_cell_angle_gamma   59.87759781
_symmetry_Int_Tables_number   1
_chemical_formula_structural   HoCdAg2
_chemical_formula_sum   'Ho1 Cd1 Ag2'
_cell_volume   84.80886353
_cell_formula_units_Z   1
loop_
 _symmetry_equiv_pos_site_id
 _symmetry_equiv_pos_as_xyz
  1  'x, y, z'
loop_
 _atom_site_type_symbol
 _atom_site_label
 _atom_site_symmetry_multiplicity
 _atom_site_fract_x
 _atom_site_fract_y
 _atom_site_fract_z
 _atom_site_occupancy
  Ho  Ho0  1  0.12033328  0.17984173  0.63419205  1
  Cd  Cd1  1  0.62062132  0.67985934  0.13397147  1
  Ag  Ag2  1  0.37044737  0.42951974  0.88358146  1
  Ag  Ag3  1  0.87047470  0.92961150  0.38385376  1
