# generated using pymatgen
data_HoCuO2
_symmetry_space_group_name_H-M   'P 1'
_cell_length_a   3.85744834
_cell_length_b   3.87321758
_cell_length_c   6.46859264
_cell_angle_alpha   89.91123199
_cell_angle_beta   90.05996704
_cell_angle_gamma   89.89102936
_symmetry_Int_Tables_number   1
_chemical_formula_structural   HoCuO2
_chemical_formula_sum   'Ho2 Cu2 O4'
_cell_volume   96.64519571
_cell_formula_units_Z   2
loop_
 _symmetry_equiv_pos_site_id
 _symmetry_equiv_pos_as_xyz
  1  'x, y, z'
loop_
 _atom_site_type_symbol
 _atom_site_label
 _atom_site_symmetry_multiplicity
 _atom_site_fract_x
 _atom_site_fract_y
 _atom_site_fract_z
 _atom_site_occupancy
  Ho  Ho0  1  0.97186559  0.99944603  0.00804459  1
  Ho  Ho1  1  0.97188199  0.99954438  0.50801468  1
  Cu  Cu2  1  0.47154301  0.49951261  0.25805593  1
  Cu  Cu3  1  0.47148281  0.49963349  0.75824022  1
  O  O4  1  0.47123945  0.99960369  0.75833094  1
  O  O5  1  0.97135806  0.49979246  0.75835693  1
  O  O6  1  0.97141725  0.49992087  0.25840551  1
  O  O7  1  0.47167256  0.99929351  0.25834727  1
