# generated using pymatgen
data_HoErPd2
_symmetry_space_group_name_H-M   'P 1'
_cell_length_a   4.94342470
_cell_length_b   4.93885994
_cell_length_c   4.93765497
_cell_angle_alpha   60.07535172
_cell_angle_beta   59.86974335
_cell_angle_gamma   59.77429581
_symmetry_Int_Tables_number   1
_chemical_formula_structural   HoErPd2
_chemical_formula_sum   'Ho1 Er1 Pd2'
_cell_volume   85.06121046
_cell_formula_units_Z   1
loop_
 _symmetry_equiv_pos_site_id
 _symmetry_equiv_pos_as_xyz
  1  'x, y, z'
loop_
 _atom_site_type_symbol
 _atom_site_label
 _atom_site_symmetry_multiplicity
 _atom_site_fract_x
 _atom_site_fract_y
 _atom_site_fract_z
 _atom_site_occupancy
  Ho  Ho0  1  0.28055707  0.53183514  0.94697982  1
  Er  Er1  1  0.78049970  0.03237071  0.44673175  1
  Pd  Pd2  1  0.03038977  0.28188756  0.69690961  1
  Pd  Pd3  1  0.53025681  0.78168064  0.19696471  1
