# generated using pymatgen
data_HoErCd2
_symmetry_space_group_name_H-M   'P 1'
_cell_length_a   5.27524805
_cell_length_b   5.26480007
_cell_length_c   5.26588774
_cell_angle_alpha   59.57592392
_cell_angle_beta   59.91002655
_cell_angle_gamma   59.86227798
_symmetry_Int_Tables_number   1
_chemical_formula_structural   HoErCd2
_chemical_formula_sum   'Ho1 Er1 Cd2'
_cell_volume   102.90234017
_cell_formula_units_Z   1
loop_
 _symmetry_equiv_pos_site_id
 _symmetry_equiv_pos_as_xyz
  1  'x, y, z'
loop_
 _atom_site_type_symbol
 _atom_site_label
 _atom_site_symmetry_multiplicity
 _atom_site_fract_x
 _atom_site_fract_y
 _atom_site_fract_z
 _atom_site_occupancy
  Ho  Ho0  1  0.94593936  0.64970720  0.59756184  1
  Er  Er1  1  0.44573566  0.14992434  0.09758848  1
  Cd  Cd2  1  0.19571814  0.89985681  0.84747314  1
  Cd  Cd3  1  0.69592357  0.39958096  0.34756389  1
