# generated using pymatgen
data_HoGa
_symmetry_space_group_name_H-M   'P 1'
_cell_length_a   4.07883787
_cell_length_b   4.32641745
_cell_length_c   5.78489590
_cell_angle_alpha   68.35223389
_cell_angle_beta   89.89573669
_cell_angle_gamma   90.10266876
_symmetry_Int_Tables_number   1
_chemical_formula_structural   HoGa
_chemical_formula_sum   'Ho2 Ga2'
_cell_volume   94.88404745
_cell_formula_units_Z   2
loop_
 _symmetry_equiv_pos_site_id
 _symmetry_equiv_pos_as_xyz
  1  'x, y, z'
loop_
 _atom_site_type_symbol
 _atom_site_label
 _atom_site_symmetry_multiplicity
 _atom_site_fract_x
 _atom_site_fract_y
 _atom_site_fract_z
 _atom_site_occupancy
  Ho  Ho0  1  0.15495676  0.72947937  0.38977474  1
  Ho  Ho1  1  0.65496022  0.00895788  0.83023620  1
  Ga  Ga2  1  0.15508007  0.44296783  0.95620733  1
  Ga  Ga3  1  0.65474373  0.29360619  0.25959036  1
