# generated using pymatgen
data_HoIO
_symmetry_space_group_name_H-M   'P 1'
_cell_length_a   3.93174410
_cell_length_b   3.95314312
_cell_length_c   9.86567879
_cell_angle_alpha   89.90956879
_cell_angle_beta   89.93395233
_cell_angle_gamma   90.06790924
_symmetry_Int_Tables_number   1
_chemical_formula_structural   HoIO
_chemical_formula_sum   'Ho2 I2 O2'
_cell_volume   153.33934977
_cell_formula_units_Z   2
loop_
 _symmetry_equiv_pos_site_id
 _symmetry_equiv_pos_as_xyz
  1  'x, y, z'
loop_
 _atom_site_type_symbol
 _atom_site_label
 _atom_site_symmetry_multiplicity
 _atom_site_fract_x
 _atom_site_fract_y
 _atom_site_fract_z
 _atom_site_occupancy
  Ho  Ho0  1  0.60813451  0.16292332  0.65927607  1
  Ho  Ho1  1  0.10784649  0.66289717  0.43870205  1
  I  I2  1  0.60825890  0.16285162  0.25036106  1
  I  I3  1  0.10837438  0.66292971  0.85210586  1
  O  O4  1  0.60830122  0.66300565  0.54544193  1
  O  O5  1  0.10848290  0.16304821  0.54579431  1
