# generated using pymatgen
data_HoNbRu2
_symmetry_space_group_name_H-M   'P 1'
_cell_length_a   4.61880922
_cell_length_b   4.62838268
_cell_length_c   4.61580372
_cell_angle_alpha   59.78447723
_cell_angle_beta   59.73128891
_cell_angle_gamma   59.80119705
_symmetry_Int_Tables_number   1
_chemical_formula_structural   HoNbRu2
_chemical_formula_sum   'Ho1 Nb1 Ru2'
_cell_volume   69.41293406
_cell_formula_units_Z   1
loop_
 _symmetry_equiv_pos_site_id
 _symmetry_equiv_pos_as_xyz
  1  'x, y, z'
loop_
 _atom_site_type_symbol
 _atom_site_label
 _atom_site_symmetry_multiplicity
 _atom_site_fract_x
 _atom_site_fract_y
 _atom_site_fract_z
 _atom_site_occupancy
  Ho  Ho0  1  0.60921532  0.98886776  0.36432487  1
  Nb  Nb1  1  0.10925179  0.48874572  0.86431593  1
  Ru  Ru2  1  0.35973293  0.73851728  0.11425070  1
  Ru  Ru3  1  0.85905391  0.23863769  0.61430883  1
