# generated using pymatgen
data_HoPbAu
_symmetry_space_group_name_H-M   'P 1'
_cell_length_a   4.79974937
_cell_length_b   4.80672693
_cell_length_c   4.79495478
_cell_angle_alpha   59.84968185
_cell_angle_beta   59.97679520
_cell_angle_gamma   59.94126892
_symmetry_Int_Tables_number   1
_chemical_formula_structural   HoPbAu
_chemical_formula_sum   'Ho1 Pb1 Au1'
_cell_volume   78.08597699
_cell_formula_units_Z   1
loop_
 _symmetry_equiv_pos_site_id
 _symmetry_equiv_pos_as_xyz
  1  'x, y, z'
loop_
 _atom_site_type_symbol
 _atom_site_label
 _atom_site_symmetry_multiplicity
 _atom_site_fract_x
 _atom_site_fract_y
 _atom_site_fract_z
 _atom_site_occupancy
  Ho  Ho0  1  0.47861680  0.82101798  0.96439832  1
  Pb  Pb1  1  0.97887295  0.32130846  0.46542701  1
  Au  Au2  1  0.72844583  0.07159396  0.21489385  1
