# generated using pymatgen
data_HoPt
_symmetry_space_group_name_H-M   'P 1'
_cell_length_a   4.60208082
_cell_length_b   5.53770208
_cell_length_c   6.92564917
_cell_angle_alpha   89.96078491
_cell_angle_beta   89.99002075
_cell_angle_gamma   89.92972565
_symmetry_Int_Tables_number   1
_chemical_formula_structural   HoPt
_chemical_formula_sum   'Ho4 Pt4'
_cell_volume   176.49966367
_cell_formula_units_Z   4
loop_
 _symmetry_equiv_pos_site_id
 _symmetry_equiv_pos_as_xyz
  1  'x, y, z'
loop_
 _atom_site_type_symbol
 _atom_site_label
 _atom_site_symmetry_multiplicity
 _atom_site_fract_x
 _atom_site_fract_y
 _atom_site_fract_z
 _atom_site_occupancy
  Ho  Ho0  1  0.75256860  0.24602278  0.73695064  1
  Ho  Ho1  1  0.25305897  0.95859832  0.09245539  1
  Ho  Ho2  1  0.25293818  0.74449056  0.59282267  1
  Ho  Ho3  1  0.75283319  0.45870137  0.23665522  1
  Pt  Pt4  1  0.25290981  0.45010149  0.96054113  1
  Pt  Pt5  1  0.25313562  0.25105160  0.46037954  1
  Pt  Pt6  1  0.75291657  0.95052350  0.36725178  1
  Pt  Pt7  1  0.75290626  0.75086206  0.86790043  1
