# generated using pymatgen
data_HoRhO3
_symmetry_space_group_name_H-M   'P 1'
_cell_length_a   5.24705124
_cell_length_b   5.78210163
_cell_length_c   7.68798828
_cell_angle_alpha   89.82254028
_cell_angle_beta   89.85259247
_cell_angle_gamma   90.04021454
_symmetry_Int_Tables_number   1
_chemical_formula_structural   HoRhO3
_chemical_formula_sum   'Ho4 Rh4 O12'
_cell_volume   233.24380038
_cell_formula_units_Z   4
loop_
 _symmetry_equiv_pos_site_id
 _symmetry_equiv_pos_as_xyz
  1  'x, y, z'
loop_
 _atom_site_type_symbol
 _atom_site_label
 _atom_site_symmetry_multiplicity
 _atom_site_fract_x
 _atom_site_fract_y
 _atom_site_fract_z
 _atom_site_occupancy
  Ho  Ho0  1  0.16210589  0.12112623  0.46414265  1
  Ho  Ho1  1  0.66249520  0.78730208  0.96426266  1
  Ho  Ho2  1  0.22224119  0.28609678  0.96441001  1
  Ho  Ho3  1  0.72160667  0.62178242  0.46416152  1
  Rh  Rh4  1  0.19273756  0.70449114  0.21438405  1
  Rh  Rh5  1  0.69271386  0.20554875  0.21418922  1
  Rh  Rh6  1  0.69164342  0.20571113  0.71456456  1
  Rh  Rh7  1  0.19211709  0.70510983  0.71434826  1
  O  O8  1  0.33252791  0.76409620  0.46511629  1
  O  O9  1  0.01118711  0.39140588  0.28109354  1
  O  O10  1  0.05186633  0.64446914  0.96504402  1
  O  O11  1  0.37072954  0.01627654  0.78069711  1
  O  O12  1  0.50987250  0.51640725  0.14793380  1
  O  O13  1  0.87119359  0.89270681  0.64818913  1
  O  O14  1  0.37074384  0.01680826  0.14793634  1
  O  O15  1  0.83229184  0.14486045  0.96510386  1
  O  O16  1  0.01070728  0.39187443  0.64827138  1
  O  O17  1  0.87111115  0.89173365  0.28010762  1
  O  O18  1  0.54911608  0.26310235  0.46479225  1
  O  O19  1  0.51058042  0.51627892  0.78028834  1
