# generated using pymatgen
data_HoTlPd
_symmetry_space_group_name_H-M   'P 1'
_cell_length_a   3.71734905
_cell_length_b   7.82943296
_cell_length_c   7.84204149
_cell_angle_alpha   119.87741852
_cell_angle_beta   89.95880127
_cell_angle_gamma   89.96835327
_symmetry_Int_Tables_number   1
_chemical_formula_structural   HoTlPd
_chemical_formula_sum   'Ho3 Tl3 Pd3'
_cell_volume   197.90564864
_cell_formula_units_Z   3
loop_
 _symmetry_equiv_pos_site_id
 _symmetry_equiv_pos_as_xyz
  1  'x, y, z'
loop_
 _atom_site_type_symbol
 _atom_site_label
 _atom_site_symmetry_multiplicity
 _atom_site_fract_x
 _atom_site_fract_y
 _atom_site_fract_z
 _atom_site_occupancy
  Ho  Ho0  1  0.34698117  0.12003477  0.36351863  1
  Ho  Ho1  1  0.34670830  0.52551770  0.96451968  1
  Ho  Ho2  1  0.34682223  0.92501277  0.76341110  1
  Tl  Tl3  1  0.84703237  0.78873402  0.36242053  1
  Tl  Tl4  1  0.84706503  0.52503270  0.63343900  1
  Tl  Tl5  1  0.84695208  0.25725448  0.09434095  1
  Pd  Pd6  1  0.34720406  0.52464581  0.36304396  1
  Pd  Pd7  1  0.84708780  0.19193564  0.69586068  1
  Pd  Pd8  1  0.84717953  0.85831088  0.02875444  1
