# generated using pymatgen
data_HoTmMg2
_symmetry_space_group_name_H-M   'P 1'
_cell_length_a   5.31810379
_cell_length_b   5.32019186
_cell_length_c   5.30563259
_cell_angle_alpha   59.69282913
_cell_angle_beta   59.78120804
_cell_angle_gamma   60.04821777
_symmetry_Int_Tables_number   1
_chemical_formula_structural   HoTmMg2
_chemical_formula_sum   'Ho1 Tm1 Mg2'
_cell_volume   105.76079549
_cell_formula_units_Z   1
loop_
 _symmetry_equiv_pos_site_id
 _symmetry_equiv_pos_as_xyz
  1  'x, y, z'
loop_
 _atom_site_type_symbol
 _atom_site_label
 _atom_site_symmetry_multiplicity
 _atom_site_fract_x
 _atom_site_fract_y
 _atom_site_fract_z
 _atom_site_occupancy
  Ho  Ho0  1  0.64277709  0.71655804  0.04605497  1
  Tm  Tm1  1  0.14301403  0.21663244  0.54555959  1
  Mg  Mg2  1  0.39309269  0.46693408  0.79606616  1
  Mg  Mg3  1  0.89287317  0.96668398  0.29655352  1
