# generated using pymatgen
data_In2AsP
_symmetry_space_group_name_H-M   'P 1'
_cell_length_a   138.54742432
_cell_length_b   140.19096375
_cell_length_c   1978.21374512
_cell_angle_alpha   89.27122498
_cell_angle_beta   87.50489807
_cell_angle_gamma   119.96643829
_symmetry_Int_Tables_number   1
_chemical_formula_structural   In2AsP
_chemical_formula_sum   'In2 As1 P1'
_cell_volume   33228641.08180989
_cell_formula_units_Z   1
loop_
 _symmetry_equiv_pos_site_id
 _symmetry_equiv_pos_as_xyz
  1  'x, y, z'
loop_
 _atom_site_type_symbol
 _atom_site_label
 _atom_site_symmetry_multiplicity
 _atom_site_fract_x
 _atom_site_fract_y
 _atom_site_fract_z
 _atom_site_occupancy
  In  In0  1  0.23769224  0.54458910  0.66224337  1
  In  In1  1  0.21964887  0.09710152  0.87638450  1
  As  As2  1  0.29881904  0.96468228  0.68782568  1
  P  P3  1  0.88110071  0.72422224  0.03999555  1
