# generated using pymatgen
data_In2S3
_symmetry_space_group_name_H-M   'P 1'
_cell_length_a   3.82941270
_cell_length_b   3.80901837
_cell_length_c   9.44841290
_cell_angle_alpha   78.23407745
_cell_angle_beta   78.22986603
_cell_angle_gamma   58.76210785
_symmetry_Int_Tables_number   1
_chemical_formula_structural   In2S3
_chemical_formula_sum   'In2 S3'
_cell_volume   114.56374321
_cell_formula_units_Z   1
loop_
 _symmetry_equiv_pos_site_id
 _symmetry_equiv_pos_as_xyz
  1  'x, y, z'
loop_
 _atom_site_type_symbol
 _atom_site_label
 _atom_site_symmetry_multiplicity
 _atom_site_fract_x
 _atom_site_fract_y
 _atom_site_fract_z
 _atom_site_occupancy
  In  In0  1  0.12621912  0.58178926  0.09008414  1
  In  In1  1  0.34416783  0.79964709  0.44690266  1
  S  S2  1  0.73673850  0.18907747  0.26393801  1
  S  S3  1  0.51049370  0.96191251  0.93664151  1
  S  S4  1  0.96008682  0.41666323  0.59110641  1
