# generated using pymatgen
data_InAgTe2
_symmetry_space_group_name_H-M   'P 1'
_cell_length_a   6.59970284
_cell_length_b   6.60226393
_cell_length_c   8.00444031
_cell_angle_alpha   114.26452637
_cell_angle_beta   114.17847443
_cell_angle_gamma   89.97080231
_symmetry_Int_Tables_number   1
_chemical_formula_structural   InAgTe2
_chemical_formula_sum   'In2 Ag2 Te4'
_cell_volume   284.10590566
_cell_formula_units_Z   2
loop_
 _symmetry_equiv_pos_site_id
 _symmetry_equiv_pos_as_xyz
  1  'x, y, z'
loop_
 _atom_site_type_symbol
 _atom_site_label
 _atom_site_symmetry_multiplicity
 _atom_site_fract_x
 _atom_site_fract_y
 _atom_site_fract_z
 _atom_site_occupancy
  In  In0  1  0.26039031  0.62408119  0.09758803  1
  In  In1  1  0.76005840  0.12463780  0.09696793  1
  Ag  Ag2  1  0.01089131  0.87431043  0.59729499  1
  Ag  Ag3  1  0.51055741  0.37452573  0.59744042  1
  Te  Te4  1  0.88415313  0.74700195  0.84385407  1
  Te  Te5  1  0.13906184  0.50147045  0.35406029  1
  Te  Te6  1  0.38198477  0.24654721  0.84310687  1
  Te  Te7  1  0.64088261  0.00049746  0.35479295  1
