# generated using pymatgen
data_InBi2S4Cl
_symmetry_space_group_name_H-M   'P 1'
_cell_length_a   3.95394039
_cell_length_b   7.06169033
_cell_length_c   8.59965420
_cell_angle_alpha   78.81996918
_cell_angle_beta   77.09683990
_cell_angle_gamma   72.50753784
_symmetry_Int_Tables_number   1
_chemical_formula_structural   InBi2S4Cl
_chemical_formula_sum   'In1 Bi2 S4 Cl1'
_cell_volume   221.14355122
_cell_formula_units_Z   1
loop_
 _symmetry_equiv_pos_site_id
 _symmetry_equiv_pos_as_xyz
  1  'x, y, z'
loop_
 _atom_site_type_symbol
 _atom_site_label
 _atom_site_symmetry_multiplicity
 _atom_site_fract_x
 _atom_site_fract_y
 _atom_site_fract_z
 _atom_site_occupancy
  In  In0  1  0.24891447  0.97201508  0.71913701  1
  Bi  Bi1  1  0.60998809  0.85255039  0.12795471  1
  Bi  Bi2  1  0.04856163  0.53904748  0.54520899  1
  S  S3  1  0.05331205  0.08449273  0.99084067  1
  S  S4  1  0.67564541  0.22816035  0.60372692  1
  S  S5  1  0.82725739  0.71823716  0.81481564  1
  S  S6  1  0.46097589  0.82877952  0.44465628  1
  Cl  Cl7  1  0.27338737  0.46472615  0.19306624  1
