# generated using pymatgen
data_InBr
_symmetry_space_group_name_H-M   'P 1'
_cell_length_a   4.55916071
_cell_length_b   4.57266426
_cell_length_c   7.55213404
_cell_angle_alpha   107.42269897
_cell_angle_beta   107.67867279
_cell_angle_gamma   89.93994141
_symmetry_Int_Tables_number   1
_chemical_formula_structural   InBr
_chemical_formula_sum   'In2 Br2'
_cell_volume   142.42452342
_cell_formula_units_Z   2
loop_
 _symmetry_equiv_pos_site_id
 _symmetry_equiv_pos_as_xyz
  1  'x, y, z'
loop_
 _atom_site_type_symbol
 _atom_site_label
 _atom_site_symmetry_multiplicity
 _atom_site_fract_x
 _atom_site_fract_y
 _atom_site_fract_z
 _atom_site_occupancy
  In  In0  1  0.28877655  0.42999831  0.83973163  1
  In  In1  1  0.06440456  0.20732012  0.38492191  1
  Br  Br2  1  0.84391367  0.98915493  0.94393623  1
  Br  Br3  1  0.51226997  0.65677893  0.28627649  1
