# generated using pymatgen
data_InCuS2
_symmetry_space_group_name_H-M   'P 1'
_cell_length_a   3.98070359
_cell_length_b   3.97221541
_cell_length_c   5.52071095
_cell_angle_alpha   89.89079285
_cell_angle_beta   89.87319946
_cell_angle_gamma   89.88446808
_symmetry_Int_Tables_number   1
_chemical_formula_structural   InCuS2
_chemical_formula_sum   'In1 Cu1 S2'
_cell_volume   87.29410372
_cell_formula_units_Z   1
loop_
 _symmetry_equiv_pos_site_id
 _symmetry_equiv_pos_as_xyz
  1  'x, y, z'
loop_
 _atom_site_type_symbol
 _atom_site_label
 _atom_site_symmetry_multiplicity
 _atom_site_fract_x
 _atom_site_fract_y
 _atom_site_fract_z
 _atom_site_occupancy
  In  In0  1  0.86404407  0.39956412  0.62298274  1
  Cu  Cu1  1  0.36468983  0.90037239  0.12272447  1
  S  S2  1  0.86466688  0.89963555  0.35018077  1
  S  S3  1  0.36379766  0.39978880  0.90017599  1
