# generated using pymatgen
data_InGaAs2
_symmetry_space_group_name_H-M   'P 1'
_cell_length_a   4.23401165
_cell_length_b   4.21496582
_cell_length_c   7.12579918
_cell_angle_alpha   72.51609039
_cell_angle_beta   72.42333984
_cell_angle_gamma   59.90715027
_symmetry_Int_Tables_number   1
_chemical_formula_structural   InGaAs2
_chemical_formula_sum   'In1 Ga1 As2'
_cell_volume   103.16501789
_cell_formula_units_Z   1
loop_
 _symmetry_equiv_pos_site_id
 _symmetry_equiv_pos_as_xyz
  1  'x, y, z'
loop_
 _atom_site_type_symbol
 _atom_site_label
 _atom_site_symmetry_multiplicity
 _atom_site_fract_x
 _atom_site_fract_y
 _atom_site_fract_z
 _atom_site_occupancy
  In  In0  1  0.56264192  0.93205178  0.44352815  1
  Ga  Ga1  1  0.06331868  0.43129984  0.94480842  1
  As  As2  1  0.18467110  0.55454826  0.57947975  1
  As  As3  1  0.69525695  0.06326882  0.04836228  1
