# generated using pymatgen
data_InHO2
_symmetry_space_group_name_H-M   'P 1'
_cell_length_a   5.88128662
_cell_length_b   5.86918783
_cell_length_c   6.26498795
_cell_angle_alpha   106.69848633
_cell_angle_beta   106.77923584
_cell_angle_gamma   112.16024017
_symmetry_Int_Tables_number   1
_chemical_formula_structural   InHO2
_chemical_formula_sum   'In4 H4 O8'
_cell_volume   171.54587053
_cell_formula_units_Z   4
loop_
 _symmetry_equiv_pos_site_id
 _symmetry_equiv_pos_as_xyz
  1  'x, y, z'
loop_
 _atom_site_type_symbol
 _atom_site_label
 _atom_site_symmetry_multiplicity
 _atom_site_fract_x
 _atom_site_fract_y
 _atom_site_fract_z
 _atom_site_occupancy
  In  In0  1  0.41699550  0.02156920  0.20160957  1
  In  In1  1  0.16463871  0.27185711  0.69515800  1
  In  In2  1  0.66560912  0.77314317  0.69829190  1
  In  In3  1  0.91568702  0.52132261  0.20000321  1
  H  H4  1  0.92197376  0.02475335  0.20202136  1
  H  H5  1  0.42134926  0.52366352  0.20314042  1
  H  H6  1  0.15959361  0.77302259  0.70658636  1
  H  H7  1  0.65965587  0.27713376  0.71704137  1
  O  O8  1  0.13665472  0.96192819  0.84187883  1
  O  O9  1  0.69806814  0.07574905  0.55957168  1
  O  O10  1  0.10514709  0.97844905  0.34050685  1
  O  O11  1  0.63235408  0.45776001  0.84065229  1
  O  O12  1  0.72793293  0.06178005  0.05987096  1
  O  O13  1  0.60650343  0.47957689  0.34051931  1
  O  O14  1  0.19676474  0.57834136  0.55926800  1
  O  O15  1  0.22736372  0.55638874  0.05940787  1
