# generated using pymatgen
data_Ir
_symmetry_space_group_name_H-M   'P 1'
_cell_length_a   2.65737534
_cell_length_b   2.63783336
_cell_length_c   2.60366583
_cell_angle_alpha   60.75476456
_cell_angle_beta   71.35810089
_cell_angle_gamma   68.95613861
_symmetry_Int_Tables_number   1
_chemical_formula_structural   Ir
_chemical_formula_sum   Ir1
_cell_volume   14.62760020
_cell_formula_units_Z   1
loop_
 _symmetry_equiv_pos_site_id
 _symmetry_equiv_pos_as_xyz
  1  'x, y, z'
loop_
 _atom_site_type_symbol
 _atom_site_label
 _atom_site_symmetry_multiplicity
 _atom_site_fract_x
 _atom_site_fract_y
 _atom_site_fract_z
 _atom_site_occupancy
  Ir  Ir0  1  0.38004759  0.91255713  0.64587611  1
