# generated using pymatgen
data_IrRh
_symmetry_space_group_name_H-M   'P 1'
_cell_length_a   2.73137927
_cell_length_b   2.77002025
_cell_length_c   4.65660191
_cell_angle_alpha   89.50721741
_cell_angle_beta   90.42340851
_cell_angle_gamma   121.47652435
_symmetry_Int_Tables_number   1
_chemical_formula_structural   IrRh
_chemical_formula_sum   'Ir1 Rh1'
_cell_volume   30.04624966
_cell_formula_units_Z   1
loop_
 _symmetry_equiv_pos_site_id
 _symmetry_equiv_pos_as_xyz
  1  'x, y, z'
loop_
 _atom_site_type_symbol
 _atom_site_label
 _atom_site_symmetry_multiplicity
 _atom_site_fract_x
 _atom_site_fract_y
 _atom_site_fract_z
 _atom_site_occupancy
  Ir  Ir0  1  0.42742673  0.01177686  0.77074367  1
  Rh  Rh1  1  0.09351893  0.34461868  0.27021804  1
