# generated using pymatgen
data_K2MgCl4
_symmetry_space_group_name_H-M   'P 1'
_cell_length_a   5.00225353
_cell_length_b   5.00782585
_cell_length_c   8.57436943
_cell_angle_alpha   107.11576080
_cell_angle_beta   107.18528748
_cell_angle_gamma   89.93444061
_symmetry_Int_Tables_number   1
_chemical_formula_structural   K2MgCl4
_chemical_formula_sum   'K2 Mg1 Cl4'
_cell_volume   195.24596124
_cell_formula_units_Z   1
loop_
 _symmetry_equiv_pos_site_id
 _symmetry_equiv_pos_as_xyz
  1  'x, y, z'
loop_
 _atom_site_type_symbol
 _atom_site_label
 _atom_site_symmetry_multiplicity
 _atom_site_fract_x
 _atom_site_fract_y
 _atom_site_fract_z
 _atom_site_occupancy
  K  K0  1  0.45130655  0.75634342  0.62226427  1
  K  K1  1  0.72808695  0.03771248  0.18146898  1
  Mg  Mg2  1  0.08615319  0.39689031  0.90105253  1
  Cl  Cl3  1  0.58752722  0.39589715  0.90012187  1
  Cl  Cl4  1  0.92718172  0.23754933  0.58061570  1
  Cl  Cl5  1  0.24655733  0.55775249  0.21921498  1
  Cl  Cl6  1  0.08716989  0.89594501  0.90111923  1
