# generated using pymatgen
data_K2NaGaF6
_symmetry_space_group_name_H-M   'P 1'
_cell_length_a   6.00665092
_cell_length_b   6.02461052
_cell_length_c   6.00965405
_cell_angle_alpha   59.74084091
_cell_angle_beta   59.82745743
_cell_angle_gamma   59.88844681
_symmetry_Int_Tables_number   1
_chemical_formula_structural   K2NaGaF6
_chemical_formula_sum   'K2 Na1 Ga1 F6'
_cell_volume   153.14598682
_cell_formula_units_Z   1
loop_
 _symmetry_equiv_pos_site_id
 _symmetry_equiv_pos_as_xyz
  1  'x, y, z'
loop_
 _atom_site_type_symbol
 _atom_site_label
 _atom_site_symmetry_multiplicity
 _atom_site_fract_x
 _atom_site_fract_y
 _atom_site_fract_z
 _atom_site_occupancy
  K  K0  1  0.93930632  0.77079087  0.61076683  1
  K  K1  1  0.43934312  0.27110696  0.11059860  1
  Na  Na2  1  0.18925135  0.02177895  0.86074585  1
  Ga  Ga3  1  0.68917215  0.52147776  0.36123186  1
  F  F4  1  0.91822100  0.29162875  0.12962747  1
  F  F5  1  0.91806871  0.75048018  0.12984878  1
  F  F6  1  0.91850150  0.29184368  0.58877134  1
  F  F7  1  0.45999414  0.29187211  0.58834320  1
  F  F8  1  0.45978534  0.75012374  0.58835489  1
  F  F9  1  0.45991752  0.75141889  0.12889421  1
