# generated using pymatgen
data_K2RbDyV2O8
_symmetry_space_group_name_H-M   'P 1'
_cell_length_a   6.03029442
_cell_length_b   6.01926517
_cell_length_c   7.71268511
_cell_angle_alpha   90.03703308
_cell_angle_beta   89.86077118
_cell_angle_gamma   120.54287720
_symmetry_Int_Tables_number   1
_chemical_formula_structural   K2RbDyV2O8
_chemical_formula_sum   'K2 Rb1 Dy1 V2 O8'
_cell_volume   241.10987195
_cell_formula_units_Z   1
loop_
 _symmetry_equiv_pos_site_id
 _symmetry_equiv_pos_as_xyz
  1  'x, y, z'
loop_
 _atom_site_type_symbol
 _atom_site_label
 _atom_site_symmetry_multiplicity
 _atom_site_fract_x
 _atom_site_fract_y
 _atom_site_fract_z
 _atom_site_occupancy
  K  K0  1  0.96137196  0.74414039  0.51126707  1
  K  K1  1  0.29414374  0.40964371  0.82310110  1
  Rb  Rb2  1  0.62782347  0.07749926  0.13582431  1
  Dy  Dy3  1  0.29440042  0.41112730  0.32244444  1
  V  V4  1  0.62780839  0.07778478  0.57775277  1
  V  V5  1  0.96102554  0.74366474  0.07215238  1
  O  O6  1  0.46860388  0.75664794  0.49933365  1
  O  O7  1  0.12160540  0.06542604  0.14835425  1
  O  O8  1  0.96062529  0.74469435  0.84926242  1
  O  O9  1  0.62711376  0.07787205  0.79816735  1
  O  O10  1  0.12120533  0.58358037  0.14875755  1
  O  O11  1  0.46907315  0.23695484  0.49919638  1
  O  O12  1  0.94519061  0.23776375  0.49850783  1
  O  O13  1  0.64362574  0.58487791  0.14838932  1
