# generated using pymatgen
data_K2TlCuBr6
_symmetry_space_group_name_H-M   'P 1'
_cell_length_a   7.70457458
_cell_length_b   7.71435547
_cell_length_c   7.70858765
_cell_angle_alpha   59.92384338
_cell_angle_beta   59.84704971
_cell_angle_gamma   59.86381149
_symmetry_Int_Tables_number   1
_chemical_formula_structural   K2TlCuBr6
_chemical_formula_sum   'K2 Tl1 Cu1 Br6'
_cell_volume   323.07708291
_cell_formula_units_Z   1
loop_
 _symmetry_equiv_pos_site_id
 _symmetry_equiv_pos_as_xyz
  1  'x, y, z'
loop_
 _atom_site_type_symbol
 _atom_site_label
 _atom_site_symmetry_multiplicity
 _atom_site_fract_x
 _atom_site_fract_y
 _atom_site_fract_z
 _atom_site_occupancy
  K  K0  1  0.58448660  0.62277323  0.31696859  1
  K  K1  1  0.08375236  0.12322757  0.81674027  1
  Tl  Tl2  1  0.83472085  0.87353557  0.56699562  1
  Cu  Cu3  1  0.33430552  0.37236187  0.06688422  1
  Br  Br4  1  0.09611285  0.13609277  0.30370927  1
  Br  Br5  1  0.57231754  0.61063164  0.82830781  1
  Br  Br6  1  0.57269251  0.13580973  0.82808483  1
  Br  Br7  1  0.09621815  0.61040795  0.82795948  1
  Br  Br8  1  0.09574310  0.61048561  0.30350697  1
  Br  Br9  1  0.57278925  0.13537593  0.30350092  1
