# generated using pymatgen
data_K2YTlBr6
_symmetry_space_group_name_H-M   'P 1'
_cell_length_a   8.40970898
_cell_length_b   8.41892815
_cell_length_c   8.40725517
_cell_angle_alpha   59.77912521
_cell_angle_beta   59.75881958
_cell_angle_gamma   59.76514053
_symmetry_Int_Tables_number   1
_chemical_formula_structural   K2YTlBr6
_chemical_formula_sum   'K2 Y1 Tl1 Br6'
_cell_volume   418.67804786
_cell_formula_units_Z   1
loop_
 _symmetry_equiv_pos_site_id
 _symmetry_equiv_pos_as_xyz
  1  'x, y, z'
loop_
 _atom_site_type_symbol
 _atom_site_label
 _atom_site_symmetry_multiplicity
 _atom_site_fract_x
 _atom_site_fract_y
 _atom_site_fract_z
 _atom_site_occupancy
  K  K0  1  0.86489451  0.70360982  0.20106666  1
  K  K1  1  0.36557645  0.20456956  0.70102561  1
  Y  Y2  1  0.61498946  0.45439276  0.95070583  1
  Tl  Tl3  1  0.11590620  0.95498627  0.45078674  1
  Br  Br4  1  0.85066175  0.68862534  0.71632189  1
  Br  Br5  1  0.38109642  0.21981341  0.18511350  1
  Br  Br6  1  0.85058093  0.21882005  0.18541646  1
  Br  Br7  1  0.38081032  0.68872571  0.71637303  1
  Br  Br8  1  0.85003740  0.21906039  0.71621943  1
  Br  Br9  1  0.38077134  0.68796068  0.18430623  1
