# generated using pymatgen
data_K3ScBr6
_symmetry_space_group_name_H-M   'P 1'
_cell_length_a   8.17092514
_cell_length_b   8.17788410
_cell_length_c   8.15635395
_cell_angle_alpha   59.97783279
_cell_angle_beta   59.82284164
_cell_angle_gamma   59.91514587
_symmetry_Int_Tables_number   1
_chemical_formula_structural   K3ScBr6
_chemical_formula_sum   'K3 Sc1 Br6'
_cell_volume   384.55401417
_cell_formula_units_Z   1
loop_
 _symmetry_equiv_pos_site_id
 _symmetry_equiv_pos_as_xyz
  1  'x, y, z'
loop_
 _atom_site_type_symbol
 _atom_site_label
 _atom_site_symmetry_multiplicity
 _atom_site_fract_x
 _atom_site_fract_y
 _atom_site_fract_z
 _atom_site_occupancy
  K  K0  1  0.27879024  0.77912807  0.87635249  1
  K  K1  1  0.02926260  0.52899033  0.62545186  1
  K  K2  1  0.77919406  0.27885196  0.37542313  1
  Sc  Sc3  1  0.52863991  0.02915152  0.12596138  1
  Br  Br4  1  0.29891619  0.25993919  0.89484280  1
  Br  Br5  1  0.29901573  0.26070315  0.35507903  1
  Br  Br6  1  0.75957847  0.25985298  0.89490199  1
  Br  Br7  1  0.75989920  0.79957926  0.35569498  1
  Br  Br8  1  0.75955230  0.79997838  0.89477271  1
  Br  Br9  1  0.29879567  0.80024832  0.35483778  1
