# generated using pymatgen
data_K3YbF6
_symmetry_space_group_name_H-M   'P 1'
_cell_length_a   6.57608128
_cell_length_b   6.74910641
_cell_length_c   8.97237968
_cell_angle_alpha   90.02019501
_cell_angle_beta   89.89850616
_cell_angle_gamma   90.14421844
_symmetry_Int_Tables_number   1
_chemical_formula_structural   K3YbF6
_chemical_formula_sum   'K6 Yb2 F12'
_cell_volume   398.21627666
_cell_formula_units_Z   2
loop_
 _symmetry_equiv_pos_site_id
 _symmetry_equiv_pos_as_xyz
  1  'x, y, z'
loop_
 _atom_site_type_symbol
 _atom_site_label
 _atom_site_symmetry_multiplicity
 _atom_site_fract_x
 _atom_site_fract_y
 _atom_site_fract_z
 _atom_site_occupancy
  K  K0  1  0.02250214  0.66236275  0.39094713  1
  K  K1  1  0.52352214  0.13298848  0.89057553  1
  K  K2  1  0.01881345  0.16586509  0.64902872  1
  K  K3  1  0.51988602  0.68203270  0.65257120  1
  K  K4  1  0.01773704  0.10616900  0.14887834  1
  K  K5  1  0.52262938  0.16314919  0.39128783  1
  Yb  Yb6  1  0.52243459  0.60446179  0.14649613  1
  Yb  Yb7  1  0.02530929  0.63180512  0.89177811  1
  F  F8  1  0.19749396  0.73927176  0.10572382  1
  F  F9  1  0.40601546  0.53496534  0.39317992  1
  F  F10  1  0.91249543  0.56254691  0.66341370  1
  F  F11  1  0.15216082  0.02142543  0.41417372  1
  F  F12  1  0.78424942  0.42702633  0.23004793  1
  F  F13  1  0.64958173  0.04091032  0.63223952  1
  F  F14  1  0.33890924  0.51190686  0.89635646  1
  F  F15  1  0.38995671  0.29097927  0.13337049  1
  F  F16  1  0.69474918  0.83906305  0.26379865  1
  F  F17  1  0.19500183  0.88806742  0.80017769  1
  F  F18  1  0.71452856  0.75718731  0.95622826  1
  F  F19  1  0.89080554  0.33066067  0.91624516  1
