# generated using pymatgen
data_K4BeAs2
_symmetry_space_group_name_H-M   'P 1'
_cell_length_a   5.75810862
_cell_length_b   5.76649809
_cell_length_c   9.03090572
_cell_angle_alpha   71.48937225
_cell_angle_beta   71.36727905
_cell_angle_gamma   59.92982864
_symmetry_Int_Tables_number   1
_chemical_formula_structural   K4BeAs2
_chemical_formula_sum   'K4 Be1 As2'
_cell_volume   241.33210374
_cell_formula_units_Z   1
loop_
 _symmetry_equiv_pos_site_id
 _symmetry_equiv_pos_as_xyz
  1  'x, y, z'
loop_
 _atom_site_type_symbol
 _atom_site_label
 _atom_site_symmetry_multiplicity
 _atom_site_fract_x
 _atom_site_fract_y
 _atom_site_fract_z
 _atom_site_occupancy
  K  K0  1  0.75219238  0.69456083  0.06133813  1
  K  K1  1  0.34034541  0.27930936  0.30089846  1
  K  K2  1  0.50283784  0.44650432  0.80057162  1
  K  K3  1  0.91838336  0.86139363  0.56135541  1
  Be  Be4  1  0.12438103  0.06849825  0.93239605  1
  As  As5  1  0.20894171  0.15070595  0.69312376  1
  As  As6  1  0.04692134  0.99184191  0.17326824  1
