# generated using pymatgen
data_K4SrU3O12
_symmetry_space_group_name_H-M   'P 1'
_cell_length_a   6.12961292
_cell_length_b   6.12299585
_cell_length_c   8.87371445
_cell_angle_alpha   89.90213776
_cell_angle_beta   89.95825958
_cell_angle_gamma   90.06674194
_symmetry_Int_Tables_number   1
_chemical_formula_structural   K4SrU3O12
_chemical_formula_sum   'K4 Sr1 U3 O12'
_cell_volume   333.04385179
_cell_formula_units_Z   1
loop_
 _symmetry_equiv_pos_site_id
 _symmetry_equiv_pos_as_xyz
  1  'x, y, z'
loop_
 _atom_site_type_symbol
 _atom_site_label
 _atom_site_symmetry_multiplicity
 _atom_site_fract_x
 _atom_site_fract_y
 _atom_site_fract_z
 _atom_site_occupancy
  K  K0  1  0.78953123  0.77493286  0.53833002  1
  K  K1  1  0.28948906  0.27515206  0.03889893  1
  K  K2  1  0.29009768  0.27481225  0.53795457  1
  K  K3  1  0.78987485  0.77463597  0.03858922  1
  Sr  Sr4  1  0.78997767  0.27498969  0.78858930  1
  U  U5  1  0.28951886  0.77477509  0.78990668  1
  U  U6  1  0.29011506  0.77466178  0.28941724  1
  U  U7  1  0.79074222  0.27444208  0.28883672  1
  O  O8  1  0.10115387  0.04563816  0.78886747  1
  O  O9  1  0.00956538  0.60165244  0.78896916  1
  O  O10  1  0.07432056  0.05986902  0.28877008  1
  O  O11  1  0.46242437  0.50617939  0.78876895  1
  O  O12  1  0.28955105  0.77443707  0.03906685  1
  O  O13  1  0.50908482  0.48708671  0.28850153  1
  O  O14  1  0.00801623  0.56189704  0.28906769  1
  O  O15  1  0.28976831  0.77414668  0.53857428  1
  O  O16  1  0.78911889  0.27464050  0.05868360  1
  O  O17  1  0.54899055  0.96303171  0.78912574  1
  O  O18  1  0.78927976  0.27446121  0.51786256  1
  O  O19  1  0.57523066  0.98960751  0.28877184  1
