# generated using pymatgen
data_KBH4
_symmetry_space_group_name_H-M   'P 1'
_cell_length_a   4.60442591
_cell_length_b   4.59962368
_cell_length_c   4.58446932
_cell_angle_alpha   59.73151779
_cell_angle_beta   60.09074783
_cell_angle_gamma   59.85491562
_symmetry_Int_Tables_number   1
_chemical_formula_structural   KBH4
_chemical_formula_sum   'K1 B1 H4'
_cell_volume   68.48594435
_cell_formula_units_Z   1
loop_
 _symmetry_equiv_pos_site_id
 _symmetry_equiv_pos_as_xyz
  1  'x, y, z'
loop_
 _atom_site_type_symbol
 _atom_site_label
 _atom_site_symmetry_multiplicity
 _atom_site_fract_x
 _atom_site_fract_y
 _atom_site_fract_z
 _atom_site_occupancy
  K  K0  1  0.67318636  0.93033260  0.00731909  1
  B  B1  1  0.17354350  0.42976671  0.50831866  1
  H  H2  1  0.49749264  0.32273090  0.39799657  1
  H  H3  1  0.05852665  0.32077566  0.39672053  1
  H  H4  1  0.05898161  0.32148063  0.84431005  1
  H  H5  1  0.05805035  0.77076828  0.39789736  1
