# generated using pymatgen
data_KCrF3
_symmetry_space_group_name_H-M   'P 1'
_cell_length_a   4.15358639
_cell_length_b   4.14182472
_cell_length_c   4.17508841
_cell_angle_alpha   89.56528473
_cell_angle_beta   89.58666992
_cell_angle_gamma   90.17505646
_symmetry_Int_Tables_number   1
_chemical_formula_structural   KCrF3
_chemical_formula_sum   'K1 Cr1 F3'
_cell_volume   71.82154409
_cell_formula_units_Z   1
loop_
 _symmetry_equiv_pos_site_id
 _symmetry_equiv_pos_as_xyz
  1  'x, y, z'
loop_
 _atom_site_type_symbol
 _atom_site_label
 _atom_site_symmetry_multiplicity
 _atom_site_fract_x
 _atom_site_fract_y
 _atom_site_fract_z
 _atom_site_occupancy
  K  K0  1  0.31300867  0.64185047  0.39592862  1
  Cr  Cr1  1  0.81326652  0.14191782  0.89550084  1
  F  F2  1  0.81360191  0.14179222  0.39531165  1
  F  F3  1  0.81330973  0.64190114  0.89582640  1
  F  F4  1  0.31328207  0.14209282  0.89556605  1
