# generated using pymatgen
data_KHO
_symmetry_space_group_name_H-M   'P 1'
_cell_length_a   4.07265854
_cell_length_b   4.08835554
_cell_length_c   6.56632137
_cell_angle_alpha   107.86550140
_cell_angle_beta   107.36846161
_cell_angle_gamma   89.53888702
_symmetry_Int_Tables_number   1
_chemical_formula_structural   KHO
_chemical_formula_sum   'K2 H2 O2'
_cell_volume   98.89484303
_cell_formula_units_Z   2
loop_
 _symmetry_equiv_pos_site_id
 _symmetry_equiv_pos_as_xyz
  1  'x, y, z'
loop_
 _atom_site_type_symbol
 _atom_site_label
 _atom_site_symmetry_multiplicity
 _atom_site_fract_x
 _atom_site_fract_y
 _atom_site_fract_z
 _atom_site_occupancy
  K  K0  1  0.20661098  0.62512249  0.22183523  1
  K  K1  1  0.89318699  0.31320533  0.59939539  1
  H  H2  1  0.50228548  0.92425227  0.82069516  1
  H  H3  1  0.59551328  0.02196113  0.00796853  1
  O  O4  1  0.67750490  0.09982672  0.16418089  1
  O  O5  1  0.42465100  0.84578121  0.66291398  1
