# generated using pymatgen
data_KMgBi
_symmetry_space_group_name_H-M   'P 1'
_cell_length_a   4.94802713
_cell_length_b   4.94296503
_cell_length_c   9.44196129
_cell_angle_alpha   105.16989899
_cell_angle_beta   105.11929321
_cell_angle_gamma   90.07706451
_symmetry_Int_Tables_number   1
_chemical_formula_structural   KMgBi
_chemical_formula_sum   'K2 Mg2 Bi2'
_cell_volume   214.56750035
_cell_formula_units_Z   2
loop_
 _symmetry_equiv_pos_site_id
 _symmetry_equiv_pos_as_xyz
  1  'x, y, z'
loop_
 _atom_site_type_symbol
 _atom_site_label
 _atom_site_symmetry_multiplicity
 _atom_site_fract_x
 _atom_site_fract_y
 _atom_site_fract_z
 _atom_site_occupancy
  K  K0  1  0.51192731  0.74129587  0.95870036  1
  K  K1  1  0.76124203  0.49183285  0.45825076  1
  Mg  Mg2  1  0.09546655  0.32699817  0.13103734  1
  Mg  Mg3  1  0.34564406  0.07521771  0.63121855  1
  Bi  Bi4  1  0.18024197  0.90842193  0.29503134  1
  Bi  Bi5  1  0.93150955  0.16464071  0.79869366  1
