# generated using pymatgen
data_KMgSb
_symmetry_space_group_name_H-M   'P 1'
_cell_length_a   4.93663788
_cell_length_b   4.89872074
_cell_length_c   8.03493881
_cell_angle_alpha   89.87570190
_cell_angle_beta   89.88211060
_cell_angle_gamma   89.99234772
_symmetry_Int_Tables_number   1
_chemical_formula_structural   KMgSb
_chemical_formula_sum   'K2 Mg2 Sb2'
_cell_volume   194.30974541
_cell_formula_units_Z   2
loop_
 _symmetry_equiv_pos_site_id
 _symmetry_equiv_pos_as_xyz
  1  'x, y, z'
loop_
 _atom_site_type_symbol
 _atom_site_label
 _atom_site_symmetry_multiplicity
 _atom_site_fract_x
 _atom_site_fract_y
 _atom_site_fract_z
 _atom_site_occupancy
  K  K0  1  0.91610271  0.81607354  0.54554909  1
  K  K1  1  0.41612819  0.31651193  0.26104137  1
  Mg  Mg2  1  0.41524127  0.81646562  0.90325850  1
  Mg  Mg3  1  0.91576725  0.31679395  0.90383649  1
  Sb  Sb4  1  0.91593677  0.81575298  0.09885512  1
  Sb  Sb5  1  0.41573450  0.31606448  0.70745754  1
