# generated using pymatgen
data_KNb(BO3)2
_symmetry_space_group_name_H-M   'P 1'
_cell_length_a   4.16877270
_cell_length_b   7.42704773
_cell_length_c   9.18832397
_cell_angle_alpha   90.14500427
_cell_angle_beta   90.99071503
_cell_angle_gamma   89.87820435
_symmetry_Int_Tables_number   1
_chemical_formula_structural   KNb(BO3)2
_chemical_formula_sum   'K2 Nb2 B4 O12'
_cell_volume   284.44183433
_cell_formula_units_Z   2
loop_
 _symmetry_equiv_pos_site_id
 _symmetry_equiv_pos_as_xyz
  1  'x, y, z'
loop_
 _atom_site_type_symbol
 _atom_site_label
 _atom_site_symmetry_multiplicity
 _atom_site_fract_x
 _atom_site_fract_y
 _atom_site_fract_z
 _atom_site_occupancy
  K  K0  1  0.15368889  0.43249595  0.27453688  1
  K  K1  1  0.27345985  0.93117583  0.77482998  1
  Nb  Nb2  1  0.48557106  0.92935723  0.35070717  1
  Nb  Nb3  1  0.95071763  0.43046013  0.85076177  1
  B  B4  1  0.72205251  0.74703872  0.06657533  1
  B  B5  1  0.67415810  0.60630965  0.57100135  1
  B  B6  1  0.72122353  0.10604788  0.06758036  1
  B  B7  1  0.68132955  0.25097886  0.56590539  1
  O  O8  1  0.53628576  0.11825608  0.19098620  1
  O  O9  1  0.89857525  0.23856042  0.00416631  1
  O  O10  1  0.74542642  0.92951131  0.00500938  1
  O  O11  1  0.87608331  0.62064493  0.69090384  1
  O  O12  1  0.66384393  0.43065989  0.50591987  1
  O  O13  1  0.53938413  0.73269987  0.19129889  1
  O  O14  1  0.50217837  0.73750442  0.50459099  1
  O  O15  1  0.01764409  0.92876166  0.35540229  1
  O  O16  1  0.90262175  0.62320536  0.00447753  1
  O  O17  1  0.87637854  0.23425519  0.69109672  1
  O  O18  1  0.50151348  0.12386307  0.50404334  1
  O  O19  1  0.39748180  0.43064407  0.85443807  1
