# generated using pymatgen
data_KNbO3
_symmetry_space_group_name_H-M   'P 1'
_cell_length_a   4.07869959
_cell_length_b   4.06716251
_cell_length_c   4.06842470
_cell_angle_alpha   89.78455353
_cell_angle_beta   89.75249481
_cell_angle_gamma   89.74905396
_symmetry_Int_Tables_number   1
_chemical_formula_structural   KNbO3
_chemical_formula_sum   'K1 Nb1 O3'
_cell_volume   67.48826609
_cell_formula_units_Z   1
loop_
 _symmetry_equiv_pos_site_id
 _symmetry_equiv_pos_as_xyz
  1  'x, y, z'
loop_
 _atom_site_type_symbol
 _atom_site_label
 _atom_site_symmetry_multiplicity
 _atom_site_fract_x
 _atom_site_fract_y
 _atom_site_fract_z
 _atom_site_occupancy
  K  K0  1  0.74882776  0.28586122  0.73750663  1
  Nb  Nb1  1  0.24906228  0.78551340  0.23718609  1
  O  O2  1  0.24859531  0.78581959  0.73706746  1
  O  O3  1  0.74882573  0.78613520  0.23789908  1
  O  O4  1  0.24831793  0.28592440  0.23756054  1
