# generated using pymatgen
data_KNO3
_symmetry_space_group_name_H-M   'P 1'
_cell_length_a   4.45362806
_cell_length_b   4.45006990
_cell_length_c   4.46193457
_cell_angle_alpha   78.73112488
_cell_angle_beta   78.65237427
_cell_angle_gamma   78.36865234
_symmetry_Int_Tables_number   1
_chemical_formula_structural   KNO3
_chemical_formula_sum   'K1 N1 O3'
_cell_volume   83.79751549
_cell_formula_units_Z   1
loop_
 _symmetry_equiv_pos_site_id
 _symmetry_equiv_pos_as_xyz
  1  'x, y, z'
loop_
 _atom_site_type_symbol
 _atom_site_label
 _atom_site_symmetry_multiplicity
 _atom_site_fract_x
 _atom_site_fract_y
 _atom_site_fract_z
 _atom_site_occupancy
  K  K0  1  0.78183103  0.08052912  0.13618408  1
  N  N1  1  0.36727229  0.37129903  0.67435062  1
  O  O2  1  0.26109430  0.12048369  0.60271263  1
  O  O3  1  0.64709193  0.49742216  0.56463659  1
  O  O4  1  0.18115875  0.47176155  0.92120302  1
