# generated using pymatgen
data_KSb(PSe3)2
_symmetry_space_group_name_H-M   'P 1'
_cell_length_a   7.13641787
_cell_length_b   7.85363150
_cell_length_c   10.91318226
_cell_angle_alpha   89.84748840
_cell_angle_beta   89.40927124
_cell_angle_gamma   89.56581879
_symmetry_Int_Tables_number   1
_chemical_formula_structural   KSb(PSe3)2
_chemical_formula_sum   'K2 Sb2 P4 Se12'
_cell_volume   611.59678993
_cell_formula_units_Z   2
loop_
 _symmetry_equiv_pos_site_id
 _symmetry_equiv_pos_as_xyz
  1  'x, y, z'
loop_
 _atom_site_type_symbol
 _atom_site_label
 _atom_site_symmetry_multiplicity
 _atom_site_fract_x
 _atom_site_fract_y
 _atom_site_fract_z
 _atom_site_occupancy
  K  K0  1  0.13398518  0.40369168  0.63784659  1
  K  K1  1  0.63344109  0.39307618  0.07787436  1
  Sb  Sb2  1  0.13283937  0.99993491  0.28743842  1
  Sb  Sb3  1  0.67552054  0.95271248  0.51176196  1
  P  P4  1  0.60944015  0.32215548  0.41920605  1
  P  P5  1  0.16903545  0.97505337  0.93244994  1
  P  P6  1  0.66155893  0.80446738  0.78966570  1
  P  P7  1  0.13155332  0.58525348  0.28843302  1
  Se  Se8  1  0.81640804  0.58557165  0.82589877  1
  Se  Se9  1  0.31497443  0.20383066  0.89924920  1
  Se  Se10  1  0.92728102  0.26053345  0.36548030  1
  Se  Se11  1  0.41274390  0.80941010  0.65308160  1
  Se  Se12  1  0.93065888  0.99089980  0.75560415  1
  Se  Se13  1  0.94654471  0.97555327  0.07237512  1
  Se  Se14  1  0.43423387  0.55692518  0.35284114  1
  Se  Se15  1  0.60398221  0.31240335  0.61477363  1
  Se  Se16  1  0.97376966  0.75219202  0.43780708  1
  Se  Se17  1  0.42961007  0.80173272  0.97657722  1
  Se  Se18  1  0.10099287  0.48922744  0.11723592  1
  Se  Se19  1  0.49312854  0.06873692  0.30158573  1
