# generated using pymatgen
data_KTiPSe5
_symmetry_space_group_name_H-M   'P 1'
_cell_length_a   5.94876719
_cell_length_b   7.37492371
_cell_length_c   9.66645050
_cell_angle_alpha   90.22432709
_cell_angle_beta   90.53202057
_cell_angle_gamma   95.61454773
_symmetry_Int_Tables_number   1
_chemical_formula_structural   KTiPSe5
_chemical_formula_sum   'K2 Ti2 P2 Se10'
_cell_volume   422.02600133
_cell_formula_units_Z   2
loop_
 _symmetry_equiv_pos_site_id
 _symmetry_equiv_pos_as_xyz
  1  'x, y, z'
loop_
 _atom_site_type_symbol
 _atom_site_label
 _atom_site_symmetry_multiplicity
 _atom_site_fract_x
 _atom_site_fract_y
 _atom_site_fract_z
 _atom_site_occupancy
  K  K0  1  0.11149088  0.13611911  0.65972418  1
  K  K1  1  0.61189520  0.13609152  0.15910295  1
  Ti  Ti2  1  0.38359621  0.63325119  0.90823549  1
  Ti  Ti3  1  0.88356090  0.63154340  0.40848416  1
  P  P4  1  0.90512168  0.69992191  0.00806520  1
  P  P5  1  0.40473956  0.69991654  0.50810206  1
  Se  Se6  1  0.56169218  0.42822796  0.48995388  1
  Se  Se7  1  0.06223441  0.42875201  0.98873276  1
  Se  Se8  1  0.68260688  0.91230351  0.49818632  1
  Se  Se9  1  0.04726547  0.35145652  0.33162999  1
  Se  Se10  1  0.19897562  0.84590840  0.35655001  1
  Se  Se11  1  0.13156788  0.63597733  0.65759134  1
  Se  Se12  1  0.69927347  0.84647322  0.85645413  1
  Se  Se13  1  0.18544772  0.91254956  0.99830347  1
  Se  Se14  1  0.63827246  0.63671130  0.15733428  1
  Se  Se15  1  0.54850805  0.35079765  0.83217663  1
