# generated using pymatgen
data_La2InPd2
_symmetry_space_group_name_H-M   'P 1'
_cell_length_a   4.08197403
_cell_length_b   7.89009619
_cell_length_c   7.91579676
_cell_angle_alpha   89.85632324
_cell_angle_beta   90.13051605
_cell_angle_gamma   89.97222900
_symmetry_Int_Tables_number   1
_chemical_formula_structural   La2InPd2
_chemical_formula_sum   'La4 In2 Pd4'
_cell_volume   254.94390016
_cell_formula_units_Z   2
loop_
 _symmetry_equiv_pos_site_id
 _symmetry_equiv_pos_as_xyz
  1  'x, y, z'
loop_
 _atom_site_type_symbol
 _atom_site_label
 _atom_site_symmetry_multiplicity
 _atom_site_fract_x
 _atom_site_fract_y
 _atom_site_fract_z
 _atom_site_occupancy
  La  La0  1  0.88692749  0.18146881  0.67731798  1
  La  La1  1  0.88688809  0.53053379  0.02973381  1
  La  La2  1  0.88695776  0.68120009  0.52952641  1
  La  La3  1  0.88721067  0.02987265  0.17763957  1
  In  In4  1  0.38691872  0.85634184  0.85587215  1
  In  In5  1  0.38736054  0.35714105  0.35568368  1
  Pd  Pd6  1  0.38731170  0.72898632  0.22846472  1
  Pd  Pd7  1  0.38739175  0.98357463  0.48277253  1
  Pd  Pd8  1  0.38720909  0.48418298  0.72932345  1
  Pd  Pd9  1  0.38730597  0.22954713  0.98206753  1
