# generated using pymatgen
data_La2Ni5C3
_symmetry_space_group_name_H-M   'P 1'
_cell_length_a   3.95557690
_cell_length_b   3.90561533
_cell_length_c   19.78351784
_cell_angle_alpha   89.73023224
_cell_angle_beta   89.91854858
_cell_angle_gamma   120.42417908
_symmetry_Int_Tables_number   1
_chemical_formula_structural   La2Ni5C3
_chemical_formula_sum   'La4 Ni10 C6'
_cell_volume   263.54342239
_cell_formula_units_Z   2
loop_
 _symmetry_equiv_pos_site_id
 _symmetry_equiv_pos_as_xyz
  1  'x, y, z'
loop_
 _atom_site_type_symbol
 _atom_site_label
 _atom_site_symmetry_multiplicity
 _atom_site_fract_x
 _atom_site_fract_y
 _atom_site_fract_z
 _atom_site_occupancy
  La  La0  1  0.71459138  0.61141294  0.20311522  1
  La  La1  1  0.71500868  0.61125338  0.47526005  1
  La  La2  1  0.71508485  0.61173272  0.97470045  1
  La  La3  1  0.71491158  0.61108762  0.71050864  1
  Ni  Ni4  1  0.38224405  0.94318002  0.39746216  1
  Ni  Ni5  1  0.04936172  0.27712122  0.33196533  1
  Ni  Ni6  1  0.38195413  0.94338453  0.61824262  1
  Ni  Ni7  1  0.38216764  0.94322592  0.28172612  1
  Ni  Ni8  1  0.04952156  0.27756947  0.11792300  1
  Ni  Ni9  1  0.04954360  0.27644077  0.78470939  1
  Ni  Ni10  1  0.38208649  0.94336009  0.06364352  1
  Ni  Ni11  1  0.38229561  0.94356573  0.83241588  1
  Ni  Ni12  1  0.04959390  0.27700773  0.56403816  1
  Ni  Ni13  1  0.04966171  0.27603534  0.89654320  1
  C  C14  1  0.38231549  0.94358993  0.89804167  1
  C  C15  1  0.04970466  0.27806169  0.39802632  1
  C  C16  1  0.04920544  0.27654919  0.04139892  1
  C  C17  1  0.04843344  0.27643919  0.64944941  1
  C  C18  1  0.05004967  0.27703428  0.24753338  1
  C  C19  1  0.38194892  0.94388390  0.53960741  1
