# generated using pymatgen
data_La2SnS5
_symmetry_space_group_name_H-M   'P 1'
_cell_length_a   6.48428726
_cell_length_b   7.18184757
_cell_length_c   9.04304123
_cell_angle_alpha   90.01521301
_cell_angle_beta   90.16018677
_cell_angle_gamma   90.56777954
_symmetry_Int_Tables_number   1
_chemical_formula_structural   La2SnS5
_chemical_formula_sum   'La4 Sn2 S10'
_cell_volume   421.10451742
_cell_formula_units_Z   2
loop_
 _symmetry_equiv_pos_site_id
 _symmetry_equiv_pos_as_xyz
  1  'x, y, z'
loop_
 _atom_site_type_symbol
 _atom_site_label
 _atom_site_symmetry_multiplicity
 _atom_site_fract_x
 _atom_site_fract_y
 _atom_site_fract_z
 _atom_site_occupancy
  La  La0  1  0.12106809  0.06957536  0.64915395  1
  La  La1  1  0.01999344  0.90091777  0.14969768  1
  La  La2  1  0.52357686  0.58203042  0.64930820  1
  La  La3  1  0.48440477  0.44170743  0.15043415  1
  Sn  Sn4  1  0.54244131  0.97367030  0.39099056  1
  Sn  Sn5  1  0.04249478  0.48665670  0.89278984  1
  S  S6  1  0.37682429  0.30986428  0.84528893  1
  S  S7  1  0.73903453  0.66763729  0.34181628  1
  S  S8  1  0.70622665  0.95798272  0.64339930  1
  S  S9  1  0.92258668  0.41638914  0.64362180  1
  S  S10  1  0.04777684  0.31626129  0.14296250  1
  S  S11  1  0.24515097  0.78581536  0.42908901  1
  S  S12  1  0.59197640  0.05223164  0.14342596  1
  S  S13  1  0.37648812  0.28546190  0.45467520  1
  S  S14  1  0.23861250  0.78892261  0.85946840  1
  S  S15  1  0.74180841  0.66357905  0.95495927  1
