# generated using pymatgen
data_La2ZnNiO6
_symmetry_space_group_name_H-M   'P 1'
_cell_length_a   4.15055323
_cell_length_b   5.38928175
_cell_length_c   7.01406813
_cell_angle_alpha   110.16308594
_cell_angle_beta   107.29835510
_cell_angle_gamma   90.01460266
_symmetry_Int_Tables_number   1
_chemical_formula_structural   La2ZnNiO6
_chemical_formula_sum   'La2 Zn1 Ni1 O6'
_cell_volume   139.69034020
_cell_formula_units_Z   1
loop_
 _symmetry_equiv_pos_site_id
 _symmetry_equiv_pos_as_xyz
  1  'x, y, z'
loop_
 _atom_site_type_symbol
 _atom_site_label
 _atom_site_symmetry_multiplicity
 _atom_site_fract_x
 _atom_site_fract_y
 _atom_site_fract_z
 _atom_site_occupancy
  La  La0  1  0.39349285  0.54804319  0.92567003  1
  La  La1  1  0.14273918  0.80291927  0.42516240  1
  Zn  Zn2  1  0.88898307  0.04971410  0.91811931  1
  Ni  Ni3  1  0.64362133  0.29527187  0.42233244  1
  O  O4  1  0.57576096  0.54325384  0.29384097  1
  O  O5  1  0.35791156  0.01141865  0.86204690  1
  O  O6  1  0.03909100  0.10424255  0.22825836  1
  O  O7  1  0.71338671  0.06511885  0.57052267  1
  O  O8  1  0.21254598  0.44385785  0.57076299  1
  O  O9  1  0.91068125  0.56442940  0.97089827  1
