# generated using pymatgen
data_La3Gd(ClO)4
_symmetry_space_group_name_H-M   'P 1'
_cell_length_a   4.01258707
_cell_length_b   6.56325483
_cell_length_c   10.31433582
_cell_angle_alpha   90.18795013
_cell_angle_beta   89.97771454
_cell_angle_gamma   89.98436737
_symmetry_Int_Tables_number   1
_chemical_formula_structural   La3Gd(ClO)4
_chemical_formula_sum   'La3 Gd1 Cl4 O4'
_cell_volume   271.63305500
_cell_formula_units_Z   1
loop_
 _symmetry_equiv_pos_site_id
 _symmetry_equiv_pos_as_xyz
  1  'x, y, z'
loop_
 _atom_site_type_symbol
 _atom_site_label
 _atom_site_symmetry_multiplicity
 _atom_site_fract_x
 _atom_site_fract_y
 _atom_site_fract_z
 _atom_site_occupancy
  La  La0  1  0.07721493  0.97173649  0.93743718  1
  La  La1  1  0.57605231  0.30883580  0.21002865  1
  La  La2  1  0.57674634  0.43883926  0.82042158  1
  Gd  Gd3  1  0.07685354  0.96350956  0.43063048  1
  Cl  Cl4  1  0.57659686  0.72240281  0.32865024  1
  Cl  Cl5  1  0.07649518  0.67177457  0.63025713  1
  Cl  Cl6  1  0.57652169  0.17606744  0.55254245  1
  Cl  Cl7  1  0.07658201  0.55501848  0.05637492  1
  O  O8  1  0.57634741  0.78154790  0.88028723  1
  O  O9  1  0.07652257  0.17309317  0.27983654  1
  O  O10  1  0.07624938  0.25342169  0.80671597  1
  O  O11  1  0.57600623  0.16790958  0.01543862  1
