# generated using pymatgen
data_La3SnC
_symmetry_space_group_name_H-M   'P 1'
_cell_length_a   5.22924614
_cell_length_b   5.22973442
_cell_length_c   5.23992443
_cell_angle_alpha   89.77999878
_cell_angle_beta   89.91880035
_cell_angle_gamma   90.28527069
_symmetry_Int_Tables_number   1
_chemical_formula_structural   La3SnC
_chemical_formula_sum   'La3 Sn1 C1'
_cell_volume   143.29621213
_cell_formula_units_Z   1
loop_
 _symmetry_equiv_pos_site_id
 _symmetry_equiv_pos_as_xyz
  1  'x, y, z'
loop_
 _atom_site_type_symbol
 _atom_site_label
 _atom_site_symmetry_multiplicity
 _atom_site_fract_x
 _atom_site_fract_y
 _atom_site_fract_z
 _atom_site_occupancy
  La  La0  1  0.35238126  0.35372192  0.23795009  1
  La  La1  1  0.85242444  0.35378674  0.73778671  1
  La  La2  1  0.35232267  0.85354072  0.73824799  1
  Sn  Sn3  1  0.85258496  0.85372925  0.23746543  1
  C  C4  1  0.35297230  0.35392016  0.73779404  1
