# generated using pymatgen
data_La3Ti2N3O4
_symmetry_space_group_name_H-M   'P 1'
_cell_length_a   3.82451630
_cell_length_b   6.72508764
_cell_length_c   7.83045530
_cell_angle_alpha   103.80438995
_cell_angle_beta   104.08169556
_cell_angle_gamma   90.04551697
_symmetry_Int_Tables_number   1
_chemical_formula_structural   La3Ti2N3O4
_chemical_formula_sum   'La3 Ti2 N3 O4'
_cell_volume   189.33573324
_cell_formula_units_Z   1
loop_
 _symmetry_equiv_pos_site_id
 _symmetry_equiv_pos_as_xyz
  1  'x, y, z'
loop_
 _atom_site_type_symbol
 _atom_site_label
 _atom_site_symmetry_multiplicity
 _atom_site_fract_x
 _atom_site_fract_y
 _atom_site_fract_z
 _atom_site_occupancy
  La  La0  1  0.18928458  0.73788106  0.15236931  1
  La  La1  1  0.59259248  0.15406553  0.95834827  1
  La  La2  1  0.83212239  0.28299701  0.44155058  1
  Ti  Ti3  1  0.88878435  0.74896950  0.54324430  1
  Ti  Ti4  1  0.49253771  0.58973026  0.75224245  1
  N  N5  1  0.35818899  0.61051857  0.48758009  1
  N  N6  1  0.59508133  0.80876511  0.96255636  1
  N  N7  1  0.98495281  0.59688216  0.73876530  1
  O  O8  1  0.80574149  0.90847898  0.37898263  1
  O  O9  1  0.44621235  0.25551924  0.66149163  1
  O  O10  1  0.69101357  0.47074676  0.15979464  1
  O  O11  1  0.20668118  0.13825342  0.18667582  1
