# generated using pymatgen
data_La3Yb
_symmetry_space_group_name_H-M   'P 1'
_cell_length_a   5.20490074
_cell_length_b   5.20987368
_cell_length_c   5.21799374
_cell_angle_alpha   89.72538757
_cell_angle_beta   89.75643158
_cell_angle_gamma   89.88848114
_symmetry_Int_Tables_number   1
_chemical_formula_structural   La3Yb
_chemical_formula_sum   'La3 Yb1'
_cell_volume   141.49251963
_cell_formula_units_Z   1
loop_
 _symmetry_equiv_pos_site_id
 _symmetry_equiv_pos_as_xyz
  1  'x, y, z'
loop_
 _atom_site_type_symbol
 _atom_site_label
 _atom_site_symmetry_multiplicity
 _atom_site_fract_x
 _atom_site_fract_y
 _atom_site_fract_z
 _atom_site_occupancy
  La  La0  1  0.54947346  0.82267660  0.83664322  1
  La  La1  1  0.04957874  0.32264712  0.83711636  1
  La  La2  1  0.04964609  0.82262182  0.33682531  1
  Yb  Yb3  1  0.54931384  0.32278931  0.33647853  1
