# generated using pymatgen
data_La5Tl3
_symmetry_space_group_name_H-M   'P 1'
_cell_length_a   6.14588594
_cell_length_b   10.17569447
_cell_length_c   10.17104244
_cell_angle_alpha   120.33757782
_cell_angle_beta   89.88867950
_cell_angle_gamma   90.02129364
_symmetry_Int_Tables_number   1
_chemical_formula_structural   La5Tl3
_chemical_formula_sum   'La10 Tl6'
_cell_volume   548.97975627
_cell_formula_units_Z   2
loop_
 _symmetry_equiv_pos_site_id
 _symmetry_equiv_pos_as_xyz
  1  'x, y, z'
loop_
 _atom_site_type_symbol
 _atom_site_label
 _atom_site_symmetry_multiplicity
 _atom_site_fract_x
 _atom_site_fract_y
 _atom_site_fract_z
 _atom_site_occupancy
  La  La0  1  0.00778981  0.09908324  0.72859681  1
  La  La1  1  0.50723171  0.41644573  0.58494610  1
  La  La2  1  0.50734979  0.75267690  0.97523534  1
  La  La3  1  0.50760341  0.98204124  0.50171864  1
  La  La4  1  0.00764672  0.68674976  0.66746378  1
  La  La5  1  0.50772256  0.10974027  0.97339469  1
  La  La6  1  0.50770658  0.56707478  0.26375973  1
  La  La7  1  0.00729904  0.34609929  0.26685044  1
  La  La8  1  0.00791205  0.52244592  0.97395724  1
  La  La9  1  0.00760587  0.98036778  0.26975441  1
  Tl  Tl10  1  0.00725525  0.72700107  0.36213225  1
  Tl  Tl11  1  0.50766104  0.34832430  0.86203486  1
  Tl  Tl12  1  0.50790238  0.11347137  0.27251661  1
  Tl  Tl13  1  0.50756288  0.77032989  0.64799756  1
  Tl  Tl14  1  0.00755986  0.97694772  0.97433656  1
  Tl  Tl15  1  0.00772960  0.31125182  0.58570737  1
