# generated using pymatgen
data_LaAl5Ni2
_symmetry_space_group_name_H-M   'P 1'
_cell_length_a   4.02567863
_cell_length_b   5.93879652
_cell_length_c   6.00552511
_cell_angle_alpha   107.19335937
_cell_angle_beta   90.32942200
_cell_angle_gamma   89.95096588
_symmetry_Int_Tables_number   1
_chemical_formula_structural   LaAl5Ni2
_chemical_formula_sum   'La1 Al5 Ni2'
_cell_volume   137.15975687
_cell_formula_units_Z   1
loop_
 _symmetry_equiv_pos_site_id
 _symmetry_equiv_pos_as_xyz
  1  'x, y, z'
loop_
 _atom_site_type_symbol
 _atom_site_label
 _atom_site_symmetry_multiplicity
 _atom_site_fract_x
 _atom_site_fract_y
 _atom_site_fract_z
 _atom_site_occupancy
  La  La0  1  0.71240848  0.91336828  0.19059820  1
  Al  Al1  1  0.21291177  0.25753170  0.51244450  1
  Al  Al2  1  0.71247208  0.05245226  0.71492457  1
  Al  Al3  1  0.21267161  0.55397177  0.91933250  1
  Al  Al4  1  0.21209079  0.70275092  0.51236480  1
  Al  Al5  1  0.71279627  0.40614656  0.19960362  1
  Ni  Ni6  1  0.71268290  0.49705794  0.64227897  1
  Ni  Ni7  1  0.21274631  0.15730760  0.94030231  1
