# generated using pymatgen
data_LaCd2
_symmetry_space_group_name_H-M   'P 1'
_cell_length_a   3.72515702
_cell_length_b   5.08593512
_cell_length_c   5.05801773
_cell_angle_alpha   121.09321594
_cell_angle_beta   90.34564209
_cell_angle_gamma   89.92739105
_symmetry_Int_Tables_number   1
_chemical_formula_structural   LaCd2
_chemical_formula_sum   'La1 Cd2'
_cell_volume   82.05916588
_cell_formula_units_Z   1
loop_
 _symmetry_equiv_pos_site_id
 _symmetry_equiv_pos_as_xyz
  1  'x, y, z'
loop_
 _atom_site_type_symbol
 _atom_site_label
 _atom_site_symmetry_multiplicity
 _atom_site_fract_x
 _atom_site_fract_y
 _atom_site_fract_z
 _atom_site_occupancy
  La  La0  1  0.30365533  0.57290995  0.47098470  1
  Cd  Cd1  1  0.80356604  0.90536624  0.13751790  1
  Cd  Cd2  1  0.80419171  0.23941578  0.80439109  1
