# generated using pymatgen
data_LaCeRh4
_symmetry_space_group_name_H-M   'P 1'
_cell_length_a   5.41408205
_cell_length_b   5.39633226
_cell_length_c   5.40718079
_cell_angle_alpha   59.92482758
_cell_angle_beta   60.24662399
_cell_angle_gamma   59.99251556
_symmetry_Int_Tables_number   1
_chemical_formula_structural   LaCeRh4
_chemical_formula_sum   'La1 Ce1 Rh4'
_cell_volume   111.84316360
_cell_formula_units_Z   1
loop_
 _symmetry_equiv_pos_site_id
 _symmetry_equiv_pos_as_xyz
  1  'x, y, z'
loop_
 _atom_site_type_symbol
 _atom_site_label
 _atom_site_symmetry_multiplicity
 _atom_site_fract_x
 _atom_site_fract_y
 _atom_site_fract_z
 _atom_site_occupancy
  La  La0  1  0.69687051  0.52734464  0.55089974  1
  Ce  Ce1  1  0.94659454  0.77796507  0.80168194  1
  Rh  Rh2  1  0.32149965  0.15210922  0.17465587  1
  Rh  Rh3  1  0.82124299  0.15215050  0.17461920  1
  Rh  Rh4  1  0.32164726  0.15197946  0.67580712  1
  Rh  Rh5  1  0.32207787  0.65316832  0.17391323  1
