# generated using pymatgen
data_LaCN2Cl
_symmetry_space_group_name_H-M   'P 1'
_cell_length_a   4.15943670
_cell_length_b   4.14194107
_cell_length_c   12.44592953
_cell_angle_alpha   90.13370514
_cell_angle_beta   90.47803497
_cell_angle_gamma   119.44877625
_symmetry_Int_Tables_number   1
_chemical_formula_structural   LaCN2Cl
_chemical_formula_sum   'La2 C2 N4 Cl2'
_cell_volume   186.70459862
_cell_formula_units_Z   2
loop_
 _symmetry_equiv_pos_site_id
 _symmetry_equiv_pos_as_xyz
  1  'x, y, z'
loop_
 _atom_site_type_symbol
 _atom_site_label
 _atom_site_symmetry_multiplicity
 _atom_site_fract_x
 _atom_site_fract_y
 _atom_site_fract_z
 _atom_site_occupancy
  La  La0  1  0.45815116  0.59002471  0.26601443  1
  La  La1  1  0.12388026  0.92654419  0.64296454  1
  C  C2  1  0.67545694  0.37252358  0.07784244  1
  C  C3  1  0.78843057  0.25916088  0.82326949  1
  N  N4  1  0.47066009  0.57609338  0.08448075  1
  N  N5  1  0.79039919  0.26236629  0.94407004  1
  N  N6  1  0.78898382  0.25953212  0.68093944  1
  N  N7  1  0.79028475  0.26160938  0.17916813  1
  Cl  Cl8  1  0.46091902  0.59350508  0.79478937  1
  Cl  Cl9  1  0.12330209  0.92327654  0.40914136  1
