# generated using pymatgen
data_LaCoNi4
_symmetry_space_group_name_H-M   'P 1'
_cell_length_a   4.02832508
_cell_length_b   4.97830534
_cell_length_c   4.93637848
_cell_angle_alpha   120.26543427
_cell_angle_beta   90.02214813
_cell_angle_gamma   90.23809052
_symmetry_Int_Tables_number   1
_chemical_formula_structural   LaCoNi4
_chemical_formula_sum   'La1 Co1 Ni4'
_cell_volume   85.50110986
_cell_formula_units_Z   1
loop_
 _symmetry_equiv_pos_site_id
 _symmetry_equiv_pos_as_xyz
  1  'x, y, z'
loop_
 _atom_site_type_symbol
 _atom_site_label
 _atom_site_symmetry_multiplicity
 _atom_site_fract_x
 _atom_site_fract_y
 _atom_site_fract_z
 _atom_site_occupancy
  La  La0  1  0.35916767  0.28751177  0.19966061  1
  Co  Co1  1  0.85928422  0.78810608  0.70065808  1
  Ni  Ni2  1  0.85878575  0.28888097  0.70040017  1
  Ni  Ni3  1  0.85894483  0.78741586  0.19936851  1
  Ni  Ni4  1  0.35891867  0.95460027  0.53284824  1
  Ni  Ni5  1  0.35895970  0.62129909  0.86573958  1
