# generated using pymatgen
data_LaCO
_symmetry_space_group_name_H-M   'P 1'
_cell_length_a   4.04704809
_cell_length_b   4.05655718
_cell_length_c   6.93224382
_cell_angle_alpha   92.09516144
_cell_angle_beta   89.73821259
_cell_angle_gamma   119.11798096
_symmetry_Int_Tables_number   1
_chemical_formula_structural   LaCO
_chemical_formula_sum   'La2 C2 O2'
_cell_volume   99.34634836
_cell_formula_units_Z   2
loop_
 _symmetry_equiv_pos_site_id
 _symmetry_equiv_pos_as_xyz
  1  'x, y, z'
loop_
 _atom_site_type_symbol
 _atom_site_label
 _atom_site_symmetry_multiplicity
 _atom_site_fract_x
 _atom_site_fract_y
 _atom_site_fract_z
 _atom_site_occupancy
  La  La0  1  0.11892612  0.93075621  0.58803171  1
  La  La1  1  0.81285322  0.33111548  0.15833408  1
  C  C2  1  0.33507165  0.51434702  0.88460761  1
  C  C3  1  0.60750335  0.78693038  0.88522196  1
  O  O4  1  0.77094537  0.25591257  0.52432150  1
  O  O5  1  0.46776712  0.63672239  0.32877269  1
