# generated using pymatgen
data_LaCrSe2O
_symmetry_space_group_name_H-M   'P 1'
_cell_length_a   6.45628738
_cell_length_b   7.10684538
_cell_length_c   9.04205418
_cell_angle_alpha   89.63463593
_cell_angle_beta   89.94358063
_cell_angle_gamma   86.72428894
_symmetry_Int_Tables_number   1
_chemical_formula_structural   LaCrSe2O
_chemical_formula_sum   'La4 Cr4 Se8 O4'
_cell_volume   414.19776396
_cell_formula_units_Z   4
loop_
 _symmetry_equiv_pos_site_id
 _symmetry_equiv_pos_as_xyz
  1  'x, y, z'
loop_
 _atom_site_type_symbol
 _atom_site_label
 _atom_site_symmetry_multiplicity
 _atom_site_fract_x
 _atom_site_fract_y
 _atom_site_fract_z
 _atom_site_occupancy
  La  La0  1  0.40659595  0.08059904  0.09183160  1
  La  La1  1  0.88003004  0.48974434  0.11793099  1
  La  La2  1  0.29031831  0.81987637  0.56074810  1
  La  La3  1  0.81099409  0.39416254  0.54492623  1
  Cr  Cr4  1  0.34839734  0.44952890  0.33034104  1
  Cr  Cr5  1  0.84884465  0.94915217  0.32631862  1
  Cr  Cr6  1  0.34903041  0.45591745  0.83145165  1
  Cr  Cr7  1  0.85560358  0.94887030  0.82897788  1
  Se  Se8  1  0.53463495  0.73245341  0.27045384  1
  Se  Se9  1  0.16300482  0.16370653  0.37947521  1
  Se  Se10  1  0.66647643  0.27185962  0.88752043  1
  Se  Se11  1  0.53513545  0.76373339  0.88250846  1
  Se  Se12  1  0.16616856  0.15821986  0.76359928  1
  Se  Se13  1  0.71279019  0.96981359  0.57018137  1
  Se  Se14  1  0.03418271  0.62197834  0.76899040  1
  Se  Se15  1  0.00177145  0.90108663  0.08469190  1
  O  O16  1  0.65741539  0.26178592  0.28328672  1
  O  O17  1  0.45380539  0.49509209  0.58200574  1
  O  O18  1  0.03505550  0.63139218  0.38196802  1
  O  O19  1  0.24254045  0.40373638  0.08068632  1
