# generated using pymatgen
data_LaFeO3
_symmetry_space_group_name_H-M   'P 1'
_cell_length_a   5.43875933
_cell_length_b   5.50092125
_cell_length_c   5.95674562
_cell_angle_alpha   116.41785431
_cell_angle_beta   115.23746490
_cell_angle_gamma   92.96292114
_symmetry_Int_Tables_number   1
_chemical_formula_structural   LaFeO3
_chemical_formula_sum   'La2 Fe2 O6'
_cell_volume   137.81178668
_cell_formula_units_Z   2
loop_
 _symmetry_equiv_pos_site_id
 _symmetry_equiv_pos_as_xyz
  1  'x, y, z'
loop_
 _atom_site_type_symbol
 _atom_site_label
 _atom_site_symmetry_multiplicity
 _atom_site_fract_x
 _atom_site_fract_y
 _atom_site_fract_z
 _atom_site_occupancy
  La  La0  1  0.06911145  0.73720449  0.21429786  1
  La  La1  1  0.57028234  0.23871353  0.21528029  1
  Fe  Fe2  1  0.32100019  0.48861510  0.71564406  1
  Fe  Fe3  1  0.82257074  0.98740399  0.71467847  1
  O  O4  1  0.54022890  0.20531525  0.62889677  1
  O  O5  1  0.57534778  0.75178659  0.25816160  1
  O  O6  1  0.04148441  0.70613533  0.62880725  1
  O  O7  1  0.13940845  0.31202638  0.84942102  1
  O  O8  1  0.06852119  0.23257157  0.23953252  1
  O  O9  1  0.63884962  0.80686295  0.84984803  1
