# generated using pymatgen
data_LaGeRu
_symmetry_space_group_name_H-M   'P 1'
_cell_length_a   4.36009073
_cell_length_b   4.32535791
_cell_length_c   7.19021797
_cell_angle_alpha   89.84754944
_cell_angle_beta   89.83362579
_cell_angle_gamma   90.06069946
_symmetry_Int_Tables_number   1
_chemical_formula_structural   LaGeRu
_chemical_formula_sum   'La2 Ge2 Ru2'
_cell_volume   135.59885358
_cell_formula_units_Z   2
loop_
 _symmetry_equiv_pos_site_id
 _symmetry_equiv_pos_as_xyz
  1  'x, y, z'
loop_
 _atom_site_type_symbol
 _atom_site_label
 _atom_site_symmetry_multiplicity
 _atom_site_fract_x
 _atom_site_fract_y
 _atom_site_fract_z
 _atom_site_occupancy
  La  La0  1  0.93793207  0.64506811  0.65846342  1
  La  La1  1  0.43765110  0.14473183  0.02907687  1
  Ge  Ge2  1  0.93751806  0.64510113  0.15848359  1
  Ge  Ge3  1  0.43767291  0.14482585  0.53076458  1
  Ru  Ru4  1  0.43806204  0.64484882  0.34506676  1
  Ru  Ru5  1  0.93794048  0.14474663  0.34497800  1
