# generated using pymatgen
data_LaGe2RuRh
_symmetry_space_group_name_H-M   'P 1'
_cell_length_a   4.33952951
_cell_length_b   4.32271528
_cell_length_c   6.01261711
_cell_angle_alpha   111.50746918
_cell_angle_beta   111.23600006
_cell_angle_gamma   90.08504486
_symmetry_Int_Tables_number   1
_chemical_formula_structural   LaGe2RuRh
_chemical_formula_sum   'La1 Ge2 Ru1 Rh1'
_cell_volume   96.62943502
_cell_formula_units_Z   1
loop_
 _symmetry_equiv_pos_site_id
 _symmetry_equiv_pos_as_xyz
  1  'x, y, z'
loop_
 _atom_site_type_symbol
 _atom_site_label
 _atom_site_symmetry_multiplicity
 _atom_site_fract_x
 _atom_site_fract_y
 _atom_site_fract_z
 _atom_site_occupancy
  La  La0  1  0.34157044  0.88785237  0.59662801  1
  Ge  Ge1  1  0.97112495  0.51728040  0.85371459  1
  Ge  Ge2  1  0.71290553  0.25657600  0.33688799  1
  Ru  Ru3  1  0.09180792  0.13749413  0.09618645  1
  Rh  Rh4  1  0.59171683  0.63706702  0.09629953  1
