# generated using pymatgen
data_LaMoN3
_symmetry_space_group_name_H-M   'P 1'
_cell_length_a   4.06320190
_cell_length_b   5.63555956
_cell_length_c   5.63387203
_cell_angle_alpha   89.96043396
_cell_angle_beta   89.83383942
_cell_angle_gamma   90.00766754
_symmetry_Int_Tables_number   1
_chemical_formula_structural   LaMoN3
_chemical_formula_sum   'La2 Mo2 N6'
_cell_volume   129.00617291
_cell_formula_units_Z   2
loop_
 _symmetry_equiv_pos_site_id
 _symmetry_equiv_pos_as_xyz
  1  'x, y, z'
loop_
 _atom_site_type_symbol
 _atom_site_label
 _atom_site_symmetry_multiplicity
 _atom_site_fract_x
 _atom_site_fract_y
 _atom_site_fract_z
 _atom_site_occupancy
  La  La0  1  0.94347990  0.51213962  0.07641568  1
  La  La1  1  0.94369704  0.01256397  0.57397008  1
  Mo  Mo2  1  0.44291526  0.01309843  0.07668881  1
  Mo  Mo3  1  0.44297215  0.51563758  0.57611787  1
  N  N4  1  0.44296497  0.73277730  0.28925240  1
  N  N5  1  0.44245842  0.31382111  0.87085205  1
  N  N6  1  0.44236419  0.81426734  0.78987539  1
  N  N7  1  0.44258648  0.23512164  0.37059593  1
  N  N8  1  0.94257826  0.02427162  0.07952635  1
  N  N9  1  0.94262487  0.52531081  0.57646239  1
