# generated using pymatgen
data_LaPbAu2
_symmetry_space_group_name_H-M   'P 1'
_cell_length_a   5.23627758
_cell_length_b   5.23429155
_cell_length_c   5.21541071
_cell_angle_alpha   59.73372650
_cell_angle_beta   59.66333771
_cell_angle_gamma   59.92647934
_symmetry_Int_Tables_number   1
_chemical_formula_structural   LaPbAu2
_chemical_formula_sum   'La1 Pb1 Au2'
_cell_volume   100.55879165
_cell_formula_units_Z   1
loop_
 _symmetry_equiv_pos_site_id
 _symmetry_equiv_pos_as_xyz
  1  'x, y, z'
loop_
 _atom_site_type_symbol
 _atom_site_label
 _atom_site_symmetry_multiplicity
 _atom_site_fract_x
 _atom_site_fract_y
 _atom_site_fract_z
 _atom_site_occupancy
  La  La0  1  0.66976601  0.35658827  0.90954936  1
  Pb  Pb1  1  0.16958851  0.85656381  0.40942425  1
  Au  Au2  1  0.41977209  0.10650706  0.65989041  1
  Au  Au3  1  0.91952044  0.60654926  0.15961665  1
