# generated using pymatgen
data_LaTh3Ru8
_symmetry_space_group_name_H-M   'P 1'
_cell_length_a   5.32606697
_cell_length_b   5.30523539
_cell_length_c   9.38644314
_cell_angle_alpha   89.92047119
_cell_angle_beta   89.87147522
_cell_angle_gamma   119.45357513
_symmetry_Int_Tables_number   1
_chemical_formula_structural   LaTh3Ru8
_chemical_formula_sum   'La1 Th3 Ru8'
_cell_volume   230.94318153
_cell_formula_units_Z   1
loop_
 _symmetry_equiv_pos_site_id
 _symmetry_equiv_pos_as_xyz
  1  'x, y, z'
loop_
 _atom_site_type_symbol
 _atom_site_label
 _atom_site_symmetry_multiplicity
 _atom_site_fract_x
 _atom_site_fract_y
 _atom_site_fract_z
 _atom_site_occupancy
  La  La0  1  0.40005380  0.67805707  0.95292425  1
  Th  Th1  1  0.73227799  0.34430733  0.08229940  1
  Th  Th2  1  0.73266351  0.34434691  0.45429507  1
  Th  Th3  1  0.39975744  0.67856014  0.58104521  1
  Ru  Ru4  1  0.06576906  0.01091995  0.51679051  1
  Ru  Ru5  1  0.89764476  0.67274380  0.76673472  1
  Ru  Ru6  1  0.89764577  0.17966716  0.76687360  1
  Ru  Ru7  1  0.06614377  0.01081326  0.01727817  1
  Ru  Ru8  1  0.73005950  0.84200156  0.26761308  1
  Ru  Ru9  1  0.23475468  0.84243965  0.26726413  1
  Ru  Ru10  1  0.23456748  0.34958735  0.26758045  1
  Ru  Ru11  1  0.40334499  0.17984629  0.76661545  1
