# generated using pymatgen
data_LaZnAu2
_symmetry_space_group_name_H-M   'P 1'
_cell_length_a   5.01235485
_cell_length_b   5.01366329
_cell_length_c   5.01867580
_cell_angle_alpha   59.76161194
_cell_angle_beta   59.78245544
_cell_angle_gamma   59.96559525
_symmetry_Int_Tables_number   1
_chemical_formula_structural   LaZnAu2
_chemical_formula_sum   'La1 Zn1 Au2'
_cell_volume   88.84924583
_cell_formula_units_Z   1
loop_
 _symmetry_equiv_pos_site_id
 _symmetry_equiv_pos_as_xyz
  1  'x, y, z'
loop_
 _atom_site_type_symbol
 _atom_site_label
 _atom_site_symmetry_multiplicity
 _atom_site_fract_x
 _atom_site_fract_y
 _atom_site_fract_z
 _atom_site_occupancy
  La  La0  1  0.54204619  0.60298210  0.51687026  1
  Zn  Zn1  1  0.04233849  0.10257816  0.01707092  1
  Au  Au2  1  0.79228556  0.85283327  0.76764530  1
  Au  Au3  1  0.29233557  0.35314313  0.26747692  1
