# generated using pymatgen
data_Li2CrPO4F
_symmetry_space_group_name_H-M   'P 1'
_cell_length_a   5.01035404
_cell_length_b   6.24930239
_cell_length_c   7.33288336
_cell_angle_alpha   106.75310516
_cell_angle_beta   102.53353119
_cell_angle_gamma   102.99456787
_symmetry_Int_Tables_number   1
_chemical_formula_structural   Li2CrPO4F
_chemical_formula_sum   'Li4 Cr2 P2 O8 F2'
_cell_volume   204.21975010
_cell_formula_units_Z   2
loop_
 _symmetry_equiv_pos_site_id
 _symmetry_equiv_pos_as_xyz
  1  'x, y, z'
loop_
 _atom_site_type_symbol
 _atom_site_label
 _atom_site_symmetry_multiplicity
 _atom_site_fract_x
 _atom_site_fract_y
 _atom_site_fract_z
 _atom_site_occupancy
  Li  Li0  1  0.67142612  0.52426559  0.78547096  1
  Li  Li1  1  0.26607689  0.22941379  0.94955617  1
  Li  Li2  1  0.26566631  0.71911806  0.95038807  1
  Li  Li3  1  0.45518938  0.10862777  0.33849457  1
  Cr  Cr4  1  0.79730344  0.65137750  0.30324304  1
  Cr  Cr5  1  0.60749722  0.97969115  0.69103914  1
  P  P6  1  0.12601170  0.38947719  0.60229474  1
  P  P7  1  0.87088943  0.05332661  0.05852210  1
  O  O8  1  0.91031933  0.88992989  0.87213939  1
  O  O9  1  0.58105266  0.04442792  0.02356957  1
  O  O10  1  0.67570996  0.89315748  0.44254291  1
  O  O11  1  0.85795504  0.40108740  0.44411293  1
  O  O12  1  0.34167266  0.63167524  0.66777581  1
  O  O13  1  0.12590054  0.20980787  0.18249120  1
  O  O14  1  0.34282580  0.22312111  0.60933119  1
  O  O15  1  0.97441953  0.35817146  0.77887845  1
  F  F16  1  0.53629738  0.53621417  0.03371698  1
  F  F17  1  0.12372255  0.76352954  0.21771523  1
