# generated using pymatgen
data_Li2Co3NiO8
_symmetry_space_group_name_H-M   'P 1'
_cell_length_a   5.74343491
_cell_length_b   5.78579569
_cell_length_c   5.80075741
_cell_angle_alpha   92.15506744
_cell_angle_beta   118.12543488
_cell_angle_gamma   118.93048859
_symmetry_Int_Tables_number   1
_chemical_formula_structural   Li2Co3NiO8
_chemical_formula_sum   'Li2 Co3 Ni1 O8'
_cell_volume   139.69557266
_cell_formula_units_Z   1
loop_
 _symmetry_equiv_pos_site_id
 _symmetry_equiv_pos_as_xyz
  1  'x, y, z'
loop_
 _atom_site_type_symbol
 _atom_site_label
 _atom_site_symmetry_multiplicity
 _atom_site_fract_x
 _atom_site_fract_y
 _atom_site_fract_z
 _atom_site_occupancy
  Li  Li0  1  0.32828245  0.75828171  0.56345963  1
  Li  Li1  1  0.08260062  0.88137376  0.92743337  1
  Co  Co2  1  0.57559615  0.62881064  0.18976827  1
  Co  Co3  1  0.82873589  0.25572148  0.56069505  1
  Co  Co4  1  0.32936195  0.25607142  0.56204879  1
  Ni  Ni5  1  0.82853037  0.25650272  0.06132892  1
  O  O6  1  0.36139897  0.03284276  0.79574925  1
  O  O7  1  0.29735896  0.48309079  0.30800629  1
  O  O8  1  0.79985374  0.46866938  0.78856844  1
  O  O9  1  0.84022069  0.48755026  0.33280119  1
  O  O10  1  0.84872091  0.03374311  0.33505315  1
  O  O11  1  0.30133525  0.47267890  0.78216869  1
  O  O12  1  0.80957514  0.03050236  0.79546785  1
  O  O13  1  0.35871369  0.03384315  0.34504882  1
