# generated using pymatgen
data_Li2CdPt
_symmetry_space_group_name_H-M   'P 1'
_cell_length_a   3.90152431
_cell_length_b   3.89474106
_cell_length_c   4.87607908
_cell_angle_alpha   113.77625275
_cell_angle_beta   114.03460693
_cell_angle_gamma   90.09965515
_symmetry_Int_Tables_number   1
_chemical_formula_structural   Li2CdPt
_chemical_formula_sum   'Li2 Cd1 Pt1'
_cell_volume   60.69384034
_cell_formula_units_Z   1
loop_
 _symmetry_equiv_pos_site_id
 _symmetry_equiv_pos_as_xyz
  1  'x, y, z'
loop_
 _atom_site_type_symbol
 _atom_site_label
 _atom_site_symmetry_multiplicity
 _atom_site_fract_x
 _atom_site_fract_y
 _atom_site_fract_z
 _atom_site_occupancy
  Li  Li0  1  0.31859395  0.01893193  0.36997768  1
  Li  Li1  1  0.06882421  0.26856923  0.87070578  1
  Cd  Cd2  1  0.81844342  0.51796967  0.36980104  1
  Pt  Pt3  1  0.56869727  0.76821131  0.87048990  1
