# generated using pymatgen
data_Li2HfN2
_symmetry_space_group_name_H-M   'P 1'
_cell_length_a   3.34214091
_cell_length_b   3.31986356
_cell_length_c   5.30103016
_cell_angle_alpha   89.81108856
_cell_angle_beta   89.65692902
_cell_angle_gamma   120.80252075
_symmetry_Int_Tables_number   1
_chemical_formula_structural   Li2HfN2
_chemical_formula_sum   'Li2 Hf1 N2'
_cell_volume   50.51810608
_cell_formula_units_Z   1
loop_
 _symmetry_equiv_pos_site_id
 _symmetry_equiv_pos_as_xyz
  1  'x, y, z'
loop_
 _atom_site_type_symbol
 _atom_site_label
 _atom_site_symmetry_multiplicity
 _atom_site_fract_x
 _atom_site_fract_y
 _atom_site_fract_z
 _atom_site_occupancy
  Li  Li0  1  0.42125410  0.42112681  0.66435874  1
  Li  Li1  1  0.08749957  0.75431150  0.41516909  1
  Hf  Hf2  1  0.75563490  0.08801190  0.03934455  1
  N  N3  1  0.08782692  0.75417888  0.82777792  1
  N  N4  1  0.42067477  0.42060435  0.25949538  1
