# generated using pymatgen
data_Li2LuIn
_symmetry_space_group_name_H-M   'P 1'
_cell_length_a   4.93454409
_cell_length_b   4.92313719
_cell_length_c   4.91080666
_cell_angle_alpha   59.62866592
_cell_angle_beta   59.88325882
_cell_angle_gamma   59.87926102
_symmetry_Int_Tables_number   1
_chemical_formula_structural   Li2LuIn
_chemical_formula_sum   'Li2 Lu1 In1'
_cell_volume   83.96837702
_cell_formula_units_Z   1
loop_
 _symmetry_equiv_pos_site_id
 _symmetry_equiv_pos_as_xyz
  1  'x, y, z'
loop_
 _atom_site_type_symbol
 _atom_site_label
 _atom_site_symmetry_multiplicity
 _atom_site_fract_x
 _atom_site_fract_y
 _atom_site_fract_z
 _atom_site_occupancy
  Li  Li0  1  0.52735502  0.51714200  0.85001111  1
  Li  Li1  1  0.77679771  0.76726657  0.10039345  1
  Lu  Lu2  1  0.02691885  0.01738140  0.35042635  1
  In  In3  1  0.27696225  0.26691508  0.60037649  1
