# generated using pymatgen
data_Li2MnCoO4
_symmetry_space_group_name_H-M   'P 1'
_cell_length_a   5.77832699
_cell_length_b   5.79000807
_cell_length_c   5.79207516
_cell_angle_alpha   60.15285492
_cell_angle_beta   60.02778244
_cell_angle_gamma   59.95051193
_symmetry_Int_Tables_number   1
_chemical_formula_structural   Li2MnCoO4
_chemical_formula_sum   'Li4 Mn2 Co2 O8'
_cell_volume   137.16011529
_cell_formula_units_Z   2
loop_
 _symmetry_equiv_pos_site_id
 _symmetry_equiv_pos_as_xyz
  1  'x, y, z'
loop_
 _atom_site_type_symbol
 _atom_site_label
 _atom_site_symmetry_multiplicity
 _atom_site_fract_x
 _atom_site_fract_y
 _atom_site_fract_z
 _atom_site_occupancy
  Li  Li0  1  0.85444456  0.25601453  0.68727565  1
  Li  Li1  1  0.35407034  0.25633100  0.68771672  1
  Li  Li2  1  0.85417485  0.75665629  0.68694317  1
  Li  Li3  1  0.35359091  0.75687957  0.68755317  1
  Mn  Mn4  1  0.85429239  0.25708535  0.18739481  1
  Mn  Mn5  1  0.35390803  0.75713658  0.18754604  1
  Co  Co6  1  0.85391748  0.75706601  0.18749829  1
  Co  Co7  1  0.35393065  0.25656566  0.18782014  1
  O  O8  1  0.09063075  0.49742615  0.96245867  1
  O  O9  1  0.11252777  0.01601484  0.41356605  1
  O  O10  1  0.59889448  0.49795747  0.96147633  1
  O  O11  1  0.60974741  0.51369303  0.41460627  1
  O  O12  1  0.09717043  0.99868333  0.95931721  1
  O  O13  1  0.59256041  0.99594891  0.96307230  1
  O  O14  1  0.11363845  0.51877278  0.41302702  1
  O  O15  1  0.61355072  0.01747400  0.41386309  1
