# generated using pymatgen
data_Li2MnCoO4
_symmetry_space_group_name_H-M   'P 1'
_cell_length_a   5.14007521
_cell_length_b   5.14585543
_cell_length_c   5.98309660
_cell_angle_alpha   89.68821716
_cell_angle_beta   89.52770996
_cell_angle_gamma   70.31607056
_symmetry_Int_Tables_number   1
_chemical_formula_structural   Li2MnCoO4
_chemical_formula_sum   'Li4 Mn2 Co2 O8'
_cell_volume   149.00021912
_cell_formula_units_Z   2
loop_
 _symmetry_equiv_pos_site_id
 _symmetry_equiv_pos_as_xyz
  1  'x, y, z'
loop_
 _atom_site_type_symbol
 _atom_site_label
 _atom_site_symmetry_multiplicity
 _atom_site_fract_x
 _atom_site_fract_y
 _atom_site_fract_z
 _atom_site_occupancy
  Li  Li0  1  0.03655197  0.48213524  0.66369885  1
  Li  Li1  1  0.03751430  0.98153752  0.91196764  1
  Li  Li2  1  0.53757960  0.48199207  0.41383028  1
  Li  Li3  1  0.53676158  0.98050112  0.16235887  1
  Mn  Mn4  1  0.03869916  0.98087090  0.41397691  1
  Mn  Mn5  1  0.03753810  0.48299375  0.16230097  1
  Co  Co6  1  0.53717220  0.48199648  0.91135710  1
  Co  Co7  1  0.53681248  0.98189789  0.66464037  1
  O  O8  1  0.26320684  0.21869467  0.39859495  1
  O  O9  1  0.78714949  0.21409039  0.65059996  1
  O  O10  1  0.77897054  0.71255934  0.92120588  1
  O  O11  1  0.80820364  0.24663441  0.16665350  1
  O  O12  1  0.29743448  0.25325713  0.92096722  1
  O  O13  1  0.26558110  0.71788776  0.16753389  1
  O  O14  1  0.29373333  0.74722356  0.65319270  1
  O  O15  1  0.81322056  0.74622834  0.39950049  1
