# generated using pymatgen
data_Li2PdPb
_symmetry_space_group_name_H-M   'P 1'
_cell_length_a   4.63084602
_cell_length_b   4.62746906
_cell_length_c   4.62524986
_cell_angle_alpha   59.83574677
_cell_angle_beta   59.85083008
_cell_angle_gamma   60.09424591
_symmetry_Int_Tables_number   1
_chemical_formula_structural   Li2PdPb
_chemical_formula_sum   'Li2 Pd1 Pb1'
_cell_volume   69.96779191
_cell_formula_units_Z   1
loop_
 _symmetry_equiv_pos_site_id
 _symmetry_equiv_pos_as_xyz
  1  'x, y, z'
loop_
 _atom_site_type_symbol
 _atom_site_label
 _atom_site_symmetry_multiplicity
 _atom_site_fract_x
 _atom_site_fract_y
 _atom_site_fract_z
 _atom_site_occupancy
  Li  Li0  1  0.19915736  0.96384984  0.32179689  1
  Li  Li1  1  0.94904828  0.71340477  0.07175677  1
  Pd  Pd2  1  0.44866756  0.21393324  0.57164848  1
  Pb  Pb3  1  0.69903111  0.46348363  0.82209349  1
