# generated using pymatgen
data_Li2ZnGe3
_symmetry_space_group_name_H-M   'P 1'
_cell_length_a   4.43948841
_cell_length_b   4.44306993
_cell_length_c   7.04173851
_cell_angle_alpha   71.82479095
_cell_angle_beta   71.74884033
_cell_angle_gamma   60.37908554
_symmetry_Int_Tables_number   1
_chemical_formula_structural   Li2ZnGe3
_chemical_formula_sum   'Li2 Zn1 Ge3'
_cell_volume   112.57554677
_cell_formula_units_Z   1
loop_
 _symmetry_equiv_pos_site_id
 _symmetry_equiv_pos_as_xyz
  1  'x, y, z'
loop_
 _atom_site_type_symbol
 _atom_site_label
 _atom_site_symmetry_multiplicity
 _atom_site_fract_x
 _atom_site_fract_y
 _atom_site_fract_z
 _atom_site_occupancy
  Li  Li0  1  0.31442878  0.33855799  0.05597160  1
  Li  Li1  1  0.76169854  0.78294063  0.71611190  1
  Zn  Zn2  1  0.16627987  0.19033317  0.50171369  1
  Ge  Ge3  1  0.91430914  0.93839407  0.25374293  1
  Ge  Ge4  1  0.53814846  0.56309175  0.37969249  1
  Ge  Ge5  1  0.04005640  0.06430402  0.87821358  1
