# generated using pymatgen
data_Li3CrF6
_symmetry_space_group_name_H-M   'P 1'
_cell_length_a   5.10461664
_cell_length_b   5.09653997
_cell_length_c   9.73869705
_cell_angle_alpha   89.84633636
_cell_angle_beta   89.84555054
_cell_angle_gamma   120.33824158
_symmetry_Int_Tables_number   1
_chemical_formula_structural   Li3CrF6
_chemical_formula_sum   'Li6 Cr2 F12'
_cell_volume   218.66202767
_cell_formula_units_Z   2
loop_
 _symmetry_equiv_pos_site_id
 _symmetry_equiv_pos_as_xyz
  1  'x, y, z'
loop_
 _atom_site_type_symbol
 _atom_site_label
 _atom_site_symmetry_multiplicity
 _atom_site_fract_x
 _atom_site_fract_y
 _atom_site_fract_z
 _atom_site_occupancy
  Li  Li0  1  0.68073916  0.44599658  0.08664643  1
  Li  Li1  1  0.01522063  0.11225539  0.79490840  1
  Li  Li2  1  0.01499333  0.11153726  0.39157555  1
  Li  Li3  1  0.34734410  0.77766871  0.58711958  1
  Li  Li4  1  0.34766421  0.77827996  0.30145746  1
  Li  Li5  1  0.34785941  0.77813429  0.87325418  1
  Cr  Cr6  1  0.68222016  0.44590563  0.58744425  1
  Cr  Cr7  1  0.01571312  0.11158010  0.08755683  1
  F  F8  1  0.01470050  0.75514382  0.46995643  1
  F  F9  1  0.71161574  0.81279439  0.20330952  1
  F  F10  1  0.31753111  0.41624886  0.96888596  1
  F  F11  1  0.66318023  0.11866336  0.47002158  1
  F  F12  1  0.00987778  0.46315923  0.69936287  1
  F  F13  1  0.31069118  0.11443631  0.20287246  1
  F  F14  1  0.37314448  0.11907672  0.70256877  1
  F  F15  1  0.66247720  0.75331974  0.70347929  1
  F  F16  1  0.01472800  0.41798800  0.20298772  1
  F  F17  1  0.37684315  0.46320704  0.46991366  1
  F  F18  1  0.01694534  0.81103140  0.96895939  1
  F  F19  1  0.71533573  0.11722617  0.96866143  1
