# generated using pymatgen
data_Li3Fe3NiO8
_symmetry_space_group_name_H-M   'P 1'
_cell_length_a   5.17993879
_cell_length_b   5.19795513
_cell_length_c   5.87130260
_cell_angle_alpha   90.35387421
_cell_angle_beta   90.08242035
_cell_angle_gamma   108.38208771
_symmetry_Int_Tables_number   1
_chemical_formula_structural   Li3Fe3NiO8
_chemical_formula_sum   'Li3 Fe3 Ni1 O8'
_cell_volume   150.01517049
_cell_formula_units_Z   1
loop_
 _symmetry_equiv_pos_site_id
 _symmetry_equiv_pos_as_xyz
  1  'x, y, z'
loop_
 _atom_site_type_symbol
 _atom_site_label
 _atom_site_symmetry_multiplicity
 _atom_site_fract_x
 _atom_site_fract_y
 _atom_site_fract_z
 _atom_site_occupancy
  Li  Li0  1  0.12191518  0.53005421  0.63238919  1
  Li  Li1  1  0.62078148  0.52894688  0.87812680  1
  Li  Li2  1  0.62043732  0.03159987  0.63168073  1
  Fe  Fe3  1  0.11945876  0.03294240  0.86710286  1
  Fe  Fe4  1  0.62369633  0.03023769  0.13973981  1
  Fe  Fe5  1  0.61798811  0.53023511  0.40890533  1
  Ni  Ni6  1  0.12033331  0.53163934  0.13738205  1
  O  O7  1  0.85809535  0.77316821  0.64178807  1
  O  O8  1  0.39509583  0.75724953  0.36386332  1
  O  O9  1  0.88928062  0.25960213  0.90914482  1
  O  O10  1  0.87129337  0.77431238  0.13395602  1
  O  O11  1  0.34823209  0.80333042  0.90974867  1
  O  O12  1  0.37479249  0.28971642  0.13674825  1
  O  O13  1  0.84366399  0.31218988  0.36342046  1
  O  O14  1  0.37645146  0.28946847  0.64414114  1
