# generated using pymatgen
data_Li3MnF6
_symmetry_space_group_name_H-M   'P 1'
_cell_length_a   5.14676905
_cell_length_b   5.32007694
_cell_length_c   7.64893436
_cell_angle_alpha   90.04405212
_cell_angle_beta   90.31412506
_cell_angle_gamma   90.02697754
_symmetry_Int_Tables_number   1
_chemical_formula_structural   Li3MnF6
_chemical_formula_sum   'Li6 Mn2 F12'
_cell_volume   209.43382456
_cell_formula_units_Z   2
loop_
 _symmetry_equiv_pos_site_id
 _symmetry_equiv_pos_as_xyz
  1  'x, y, z'
loop_
 _atom_site_type_symbol
 _atom_site_label
 _atom_site_symmetry_multiplicity
 _atom_site_fract_x
 _atom_site_fract_y
 _atom_site_fract_z
 _atom_site_occupancy
  Li  Li0  1  0.14052258  0.67430359  0.94780087  1
  Li  Li1  1  0.66004896  0.65091628  0.69493729  1
  Li  Li2  1  0.16032122  0.15052503  0.19480123  1
  Li  Li3  1  0.64122140  0.12256099  0.44311491  1
  Li  Li4  1  0.17801695  0.62355286  0.44877300  1
  Li  Li5  1  0.67917252  0.16741832  0.94677573  1
  Mn  Mn6  1  0.66115069  0.65074366  0.19576451  1
  Mn  Mn7  1  0.16045143  0.14983654  0.69534934  1
  F  F8  1  0.53198195  0.74510783  0.43680009  1
  F  F9  1  0.81492692  0.33586207  0.26467466  1
  F  F10  1  0.79111362  0.55937231  0.95432407  1
  F  F11  1  0.31424209  0.46859658  0.76447290  1
  F  F12  1  0.50647342  0.96932364  0.12451062  1
  F  F13  1  0.99031746  0.82322961  0.26256883  1
  F  F14  1  0.03113632  0.05887473  0.93609452  1
  F  F15  1  0.48883191  0.97834802  0.76137787  1
  F  F16  1  0.00580122  0.83565623  0.62445784  1
  F  F17  1  0.33769280  0.47665203  0.12438613  1
  F  F18  1  0.29090089  0.24605608  0.45510542  1
  F  F19  1  0.83739591  0.32339966  0.62468839  1
