# generated using pymatgen
data_Li3MnCoO5
_symmetry_space_group_name_H-M   'P 1'
_cell_length_a   5.09841633
_cell_length_b   5.09709167
_cell_length_c   7.53362513
_cell_angle_alpha   106.97090912
_cell_angle_beta   103.47408295
_cell_angle_gamma   102.96960449
_symmetry_Int_Tables_number   1
_chemical_formula_structural   Li3MnCoO5
_chemical_formula_sum   'Li6 Mn2 Co2 O10'
_cell_volume   172.86261289
_cell_formula_units_Z   2
loop_
 _symmetry_equiv_pos_site_id
 _symmetry_equiv_pos_as_xyz
  1  'x, y, z'
loop_
 _atom_site_type_symbol
 _atom_site_label
 _atom_site_symmetry_multiplicity
 _atom_site_fract_x
 _atom_site_fract_y
 _atom_site_fract_z
 _atom_site_occupancy
  Li  Li0  1  0.17482123  0.30116343  0.00888683  1
  Li  Li1  1  0.99030685  0.91372317  0.62264264  1
  Li  Li2  1  0.27886492  0.50726259  0.71652150  1
  Li  Li3  1  0.37637681  0.71006620  0.42398682  1
  Li  Li4  1  0.89211351  0.71710485  0.91602182  1
  Li  Li5  1  0.08940441  0.11100123  0.32005167  1
  Mn  Mn6  1  0.68530095  0.31596151  0.51990497  1
  Mn  Mn7  1  0.47969192  0.90480882  0.11634462  1
  Co  Co8  1  0.79695743  0.51926577  0.21526498  1
  Co  Co9  1  0.58935529  0.09875973  0.81147885  1
  O  O10  1  0.54581314  0.52982813  0.99113542  1
  O  O11  1  0.80063778  0.11373251  0.06017161  1
  O  O12  1  0.37225679  0.12869953  0.58360356  1
  O  O13  1  0.46583590  0.30603865  0.27784058  1
  O  O14  1  0.27511674  0.92226213  0.88042879  1
  O  O15  1  0.99202836  0.50213420  0.45181996  1
  O  O16  1  0.89581913  0.30057141  0.75020868  1
  O  O17  1  0.70542848  0.91077071  0.34591299  1
  O  O18  1  0.13978253  0.71826327  0.16988875  1
  O  O19  1  0.64281124  0.70938790  0.66735369  1
