# generated using pymatgen
data_Li3Mn2CoO6
_symmetry_space_group_name_H-M   'P 1'
_cell_length_a   2.97843552
_cell_length_b   5.37830400
_cell_length_c   7.32732058
_cell_angle_alpha   91.35238647
_cell_angle_beta   90.79230499
_cell_angle_gamma   89.97227478
_symmetry_Int_Tables_number   1
_chemical_formula_structural   Li3Mn2CoO6
_chemical_formula_sum   'Li3 Mn2 Co1 O6'
_cell_volume   117.33193170
_cell_formula_units_Z   1
loop_
 _symmetry_equiv_pos_site_id
 _symmetry_equiv_pos_as_xyz
  1  'x, y, z'
loop_
 _atom_site_type_symbol
 _atom_site_label
 _atom_site_symmetry_multiplicity
 _atom_site_fract_x
 _atom_site_fract_y
 _atom_site_fract_z
 _atom_site_occupancy
  Li  Li0  1  0.21663904  0.55101019  0.07943124  1
  Li  Li1  1  0.21611114  0.21484828  0.77091414  1
  Li  Li2  1  0.71611089  0.71237659  0.77088308  1
  Mn  Mn3  1  0.21613857  0.87446058  0.43372053  1
  Mn  Mn4  1  0.71613902  0.37657288  0.43293938  1
  Co  Co5  1  0.71628171  0.05690936  0.07987589  1
  O  O6  1  0.21700047  0.89917612  0.94334239  1
  O  O7  1  0.71614659  0.36508483  0.93556815  1
  O  O8  1  0.21606457  0.20184909  0.25503975  1
  O  O9  1  0.71635753  0.72546118  0.26829386  1
  O  O10  1  0.21596228  0.53783250  0.58367282  1
  O  O11  1  0.71596473  0.04375905  0.58523202  1
