# generated using pymatgen
data_Li3Ni5OF11
_symmetry_space_group_name_H-M   'P 1'
_cell_length_a   5.25487041
_cell_length_b   5.81339264
_cell_length_c   7.22474289
_cell_angle_alpha   96.17923737
_cell_angle_beta   90.66886902
_cell_angle_gamma   90.54869843
_symmetry_Int_Tables_number   1
_chemical_formula_structural   Li3Ni5OF11
_chemical_formula_sum   'Li3 Ni5 O1 F11'
_cell_volume   219.39568847
_cell_formula_units_Z   1
loop_
 _symmetry_equiv_pos_site_id
 _symmetry_equiv_pos_as_xyz
  1  'x, y, z'
loop_
 _atom_site_type_symbol
 _atom_site_label
 _atom_site_symmetry_multiplicity
 _atom_site_fract_x
 _atom_site_fract_y
 _atom_site_fract_z
 _atom_site_occupancy
  Li  Li0  1  0.68386507  0.71988696  0.55666906  1
  Li  Li1  1  0.18009242  0.52514857  0.38063040  1
  Li  Li2  1  0.17470801  0.04486119  0.04577810  1
  Ni  Ni3  1  0.68252230  0.25090235  0.24030334  1
  Ni  Ni4  1  0.67583179  0.66649014  0.05910004  1
  Ni  Ni5  1  0.16369070  0.09531216  0.53615922  1
  Ni  Ni6  1  0.17995325  0.48665604  0.88067281  1
  Ni  Ni7  1  0.68456763  0.26003736  0.70605332  1
  O  O8  1  0.87104505  0.26058778  0.46936977  1
  F  F9  1  0.82836539  0.58830923  0.79358381  1
  F  F10  1  0.35893428  0.42608583  0.62970912  1
  F  F11  1  0.83061904  0.95849556  0.12131695  1
  F  F12  1  0.33070776  0.13617773  0.29098785  1
  F  F13  1  0.03201748  0.15363175  0.80588371  1
  F  F14  1  0.33713281  0.77009749  0.97186434  1
  F  F15  1  0.98003149  0.45592862  0.13142094  1
  F  F16  1  0.49615172  0.97534096  0.63256550  1
  F  F17  1  0.02979775  0.79167563  0.47844484  1
  F  F18  1  0.50666082  0.31188837  0.97268605  1
  F  F19  1  0.53701150  0.59063315  0.30853871  1
