# generated using pymatgen
data_Li3Ni2O2F3
_symmetry_space_group_name_H-M   'P 1'
_cell_length_a   2.96030331
_cell_length_b   5.19817162
_cell_length_c   12.02891445
_cell_angle_alpha   90.17495728
_cell_angle_beta   89.74701691
_cell_angle_gamma   89.67014313
_symmetry_Int_Tables_number   1
_chemical_formula_structural   Li3Ni2O2F3
_chemical_formula_sum   'Li6 Ni4 O4 F6'
_cell_volume   185.09716653
_cell_formula_units_Z   2
loop_
 _symmetry_equiv_pos_site_id
 _symmetry_equiv_pos_as_xyz
  1  'x, y, z'
loop_
 _atom_site_type_symbol
 _atom_site_label
 _atom_site_symmetry_multiplicity
 _atom_site_fract_x
 _atom_site_fract_y
 _atom_site_fract_z
 _atom_site_occupancy
  Li  Li0  1  0.08284894  0.91616100  0.29771942  1
  Li  Li1  1  0.58326703  0.08080259  0.88336617  1
  Li  Li2  1  0.08288077  0.59019780  0.88175547  1
  Li  Li3  1  0.58322233  0.75414431  0.69397795  1
  Li  Li4  1  0.08309276  0.91994750  0.48557842  1
  Li  Li5  1  0.58331203  0.45305663  0.27594331  1
  Ni  Ni6  1  0.08212329  0.25677285  0.69436890  1
  Ni  Ni7  1  0.58272070  0.45216948  0.48434603  1
  Ni  Ni8  1  0.58282518  0.75547922  0.08454892  1
  Ni  Ni9  1  0.08254454  0.25172961  0.08485968  1
  O  O10  1  0.08242901  0.92287862  0.98699617  1
  O  O11  1  0.08265089  0.58892274  0.17509031  1
  O  O12  1  0.58287811  0.41621479  0.77560037  1
  O  O13  1  0.58312917  0.75246215  0.39091572  1
  F  F14  1  0.08268795  0.25610754  0.38930121  1
  F  F15  1  0.08285341  0.59682834  0.58506942  1
  F  F16  1  0.58273005  0.10120461  0.19429584  1
  F  F17  1  0.08274496  0.91167659  0.77662915  1
  F  F18  1  0.58269131  0.08314901  0.58464640  1
  F  F19  1  0.58258879  0.40848610  0.97840059  1
