# generated using pymatgen
data_Li4Nd3Ge4
_symmetry_space_group_name_H-M   'P 1'
_cell_length_a   4.30624676
_cell_length_b   7.79433727
_cell_length_c   8.01029682
_cell_angle_alpha   118.37567902
_cell_angle_beta   89.89427185
_cell_angle_gamma   90.04997253
_symmetry_Int_Tables_number   1
_chemical_formula_structural   Li4Nd3Ge4
_chemical_formula_sum   'Li4 Nd3 Ge4'
_cell_volume   236.55645642
_cell_formula_units_Z   1
loop_
 _symmetry_equiv_pos_site_id
 _symmetry_equiv_pos_as_xyz
  1  'x, y, z'
loop_
 _atom_site_type_symbol
 _atom_site_label
 _atom_site_symmetry_multiplicity
 _atom_site_fract_x
 _atom_site_fract_y
 _atom_site_fract_z
 _atom_site_occupancy
  Li  Li0  1  0.12078417  0.85518169  0.67030603  1
  Li  Li1  1  0.12036696  0.49604148  0.61326063  1
  Li  Li2  1  0.12090616  0.99532473  0.98784661  1
  Li  Li3  1  0.12031819  0.58685654  0.96500856  1
  Nd  Nd4  1  0.62070316  0.22543278  0.33476630  1
  Nd  Nd5  1  0.62049884  0.73060262  0.34227988  1
  Nd  Nd6  1  0.62048423  0.23681617  0.84296620  1
  Ge  Ge7  1  0.12049550  0.39549547  0.17777903  1
  Ge  Ge8  1  0.12066873  0.11446449  0.55049533  1
  Ge  Ge9  1  0.12061556  0.90320146  0.22224937  1
  Ge  Ge10  1  0.62056696  0.73104906  0.83933920  1
