# generated using pymatgen
data_Li5Co3O8
_symmetry_space_group_name_H-M   'P 1'
_cell_length_a   4.98646927
_cell_length_b   5.02644587
_cell_length_c   5.93068266
_cell_angle_alpha   89.57129669
_cell_angle_beta   89.65579224
_cell_angle_gamma   108.66746521
_symmetry_Int_Tables_number   1
_chemical_formula_structural   Li5Co3O8
_chemical_formula_sum   'Li5 Co3 O8'
_cell_volume   140.81839822
_cell_formula_units_Z   1
loop_
 _symmetry_equiv_pos_site_id
 _symmetry_equiv_pos_as_xyz
  1  'x, y, z'
loop_
 _atom_site_type_symbol
 _atom_site_label
 _atom_site_symmetry_multiplicity
 _atom_site_fract_x
 _atom_site_fract_y
 _atom_site_fract_z
 _atom_site_occupancy
  Li  Li0  1  0.56276405  0.98929971  0.26010466  1
  Li  Li1  1  0.56289965  0.48890072  0.03235265  1
  Li  Li2  1  0.06284489  0.99016267  0.04510592  1
  Li  Li3  1  0.06299331  0.98770827  0.50552922  1
  Li  Li4  1  0.06224230  0.49046642  0.26174080  1
  Co  Co5  1  0.56217581  0.48795965  0.50545537  1
  Co  Co6  1  0.06367569  0.48989984  0.77936924  1
  Co  Co7  1  0.56254268  0.98954797  0.77981162  1
  O  O8  1  0.33467931  0.26004800  0.29503313  1
  O  O9  1  0.32215735  0.26530862  0.75530559  1
  O  O10  1  0.81200916  0.72284675  0.75815457  1
  O  O11  1  0.29845178  0.74258214  0.98361099  1
  O  O12  1  0.32916573  0.71166438  0.54181331  1
  O  O13  1  0.79080331  0.72435594  0.29495621  1
  O  O14  1  0.82224911  0.23594047  0.98336369  1
  O  O15  1  0.80253786  0.26687047  0.54294831  1
