# generated using pymatgen
data_Li5Mn3(NiO5)2
_symmetry_space_group_name_H-M   'P 1'
_cell_length_a   5.12938356
_cell_length_b   5.30882645
_cell_length_c   7.56448984
_cell_angle_alpha   107.24826813
_cell_angle_beta   101.79245758
_cell_angle_gamma   102.35978699
_symmetry_Int_Tables_number   1
_chemical_formula_structural   Li5Mn3(NiO5)2
_chemical_formula_sum   'Li5 Mn3 Ni2 O10'
_cell_volume   184.07542759
_cell_formula_units_Z   1
loop_
 _symmetry_equiv_pos_site_id
 _symmetry_equiv_pos_as_xyz
  1  'x, y, z'
loop_
 _atom_site_type_symbol
 _atom_site_label
 _atom_site_symmetry_multiplicity
 _atom_site_fract_x
 _atom_site_fract_y
 _atom_site_fract_z
 _atom_site_occupancy
  Li  Li0  1  0.50603491  0.48439673  0.86337042  1
  Li  Li1  1  0.00797475  0.49437490  0.38538235  1
  Li  Li2  1  0.60771358  0.67881179  0.56912178  1
  Li  Li3  1  0.71230984  0.88949895  0.28587183  1
  Li  Li4  1  0.90420449  0.27789193  0.66396719  1
  Mn  Mn5  1  0.41601443  0.28607839  0.17700219  1
  Mn  Mn6  1  0.30487728  0.08448482  0.47476563  1
  Mn  Mn7  1  0.80177468  0.07620046  0.96626633  1
  Ni  Ni8  1  0.19790079  0.86754328  0.75918496  1
  Ni  Ni9  1  0.10537388  0.67452687  0.06929728  1
  O  O10  1  0.61502135  0.27290797  0.41211772  1
  O  O11  1  0.54064327  0.07923482  0.71963316  1
  O  O12  1  0.47147086  0.90416086  0.01416532  1
  O  O13  1  0.86352879  0.72201151  0.83713555  1
  O  O14  1  0.74524289  0.44615504  0.11424701  1
  O  O15  1  0.07147597  0.08436222  0.22423753  1
  O  O16  1  0.15887897  0.26842102  0.94147140  1
  O  O17  1  0.98822129  0.89517123  0.52458316  1
  O  O18  1  0.36265436  0.69828022  0.31964186  1
  O  O19  1  0.25181744  0.45616364  0.61384726  1
