# generated using pymatgen
data_Li5Mn3Cr2O10
_symmetry_space_group_name_H-M   'P 1'
_cell_length_a   5.08524513
_cell_length_b   5.21551991
_cell_length_c   7.81118917
_cell_angle_alpha   83.91615295
_cell_angle_beta   71.79522705
_cell_angle_gamma   71.65821838
_symmetry_Int_Tables_number   1
_chemical_formula_structural   Li5Mn3Cr2O10
_chemical_formula_sum   'Li5 Mn3 Cr2 O10'
_cell_volume   186.79527349
_cell_formula_units_Z   1
loop_
 _symmetry_equiv_pos_site_id
 _symmetry_equiv_pos_as_xyz
  1  'x, y, z'
loop_
 _atom_site_type_symbol
 _atom_site_label
 _atom_site_symmetry_multiplicity
 _atom_site_fract_x
 _atom_site_fract_y
 _atom_site_fract_z
 _atom_site_occupancy
  Li  Li0  1  0.57098591  0.41134185  0.93111998  1
  Li  Li1  1  0.86378330  0.91120797  0.35621729  1
  Li  Li2  1  0.16410367  0.41084456  0.73552436  1
  Li  Li3  1  0.26454705  0.91109544  0.54639506  1
  Li  Li4  1  0.76509041  0.41275388  0.54834747  1
  Mn  Mn5  1  0.67374647  0.91186666  0.73240685  1
  Mn  Mn6  1  0.36112851  0.41208729  0.35592413  1
  Mn  Mn7  1  0.46664175  0.91152883  0.14633591  1
  Cr  Cr8  1  0.96712607  0.41090611  0.13698515  1
  Cr  Cr9  1  0.07322788  0.91127372  0.93206549  1
  O  O10  1  0.01171730  0.66661930  0.54793841  1
  O  O11  1  0.83128798  0.68104297  0.95131403  1
  O  O12  1  0.51275450  0.16091478  0.54840964  1
  O  O13  1  0.42242771  0.68752927  0.75804698  1
  O  O14  1  0.61352152  0.63805652  0.33009326  1
  O  O15  1  0.13480012  0.18429130  0.32259738  1
  O  O16  1  0.71826953  0.15913653  0.14070150  1
  O  O17  1  0.90331846  0.13879846  0.75782132  1
  O  O18  1  0.21742280  0.66395354  0.14073499  1
  O  O19  1  0.30926177  0.14181770  0.95338631  1
