# generated using pymatgen
data_LiCoO2
_symmetry_space_group_name_H-M   'P 1'
_cell_length_a   2.87032032
_cell_length_b   2.88700938
_cell_length_c   5.06931925
_cell_angle_alpha   73.57831573
_cell_angle_beta   73.75356293
_cell_angle_gamma   61.42926025
_symmetry_Int_Tables_number   1
_chemical_formula_structural   LiCoO2
_chemical_formula_sum   'Li1 Co1 O2'
_cell_volume   34.86231159
_cell_formula_units_Z   1
loop_
 _symmetry_equiv_pos_site_id
 _symmetry_equiv_pos_as_xyz
  1  'x, y, z'
loop_
 _atom_site_type_symbol
 _atom_site_label
 _atom_site_symmetry_multiplicity
 _atom_site_fract_x
 _atom_site_fract_y
 _atom_site_fract_z
 _atom_site_occupancy
  Li  Li0  1  0.85722554  0.32811520  0.87977785  1
  Co  Co1  1  0.35838288  0.82934397  0.37807703  1
  O  O2  1  0.62328327  0.09127920  0.59517390  1
  O  O3  1  0.09459008  0.56773984  0.16405025  1
