# generated using pymatgen
data_LiCuS2
_symmetry_space_group_name_H-M   'P 1'
_cell_length_a   3.54110432
_cell_length_b   5.93344355
_cell_length_c   6.05920792
_cell_angle_alpha   110.18803406
_cell_angle_beta   90.48021698
_cell_angle_gamma   89.94376373
_symmetry_Int_Tables_number   1
_chemical_formula_structural   LiCuS2
_chemical_formula_sum   'Li2 Cu2 S4'
_cell_volume   119.48397019
_cell_formula_units_Z   2
loop_
 _symmetry_equiv_pos_site_id
 _symmetry_equiv_pos_as_xyz
  1  'x, y, z'
loop_
 _atom_site_type_symbol
 _atom_site_label
 _atom_site_symmetry_multiplicity
 _atom_site_fract_x
 _atom_site_fract_y
 _atom_site_fract_z
 _atom_site_occupancy
  Li  Li0  1  0.30546364  0.33029315  0.09972861  1
  Li  Li1  1  0.30553252  0.83025140  0.59995902  1
  Cu  Cu2  1  0.80541360  0.83017504  0.09968842  1
  Cu  Cu3  1  0.80487531  0.33062404  0.59939635  1
  S  S4  1  0.30581924  0.57813555  0.84925604  1
  S  S5  1  0.80558950  0.07789105  0.84937817  1
  S  S6  1  0.80561042  0.57761991  0.34874907  1
  S  S7  1  0.30586201  0.07787958  0.34900123  1
