# generated using pymatgen
data_LiEuPSe4
_symmetry_space_group_name_H-M   'P 1'
_cell_length_a   6.89776754
_cell_length_b   6.89889002
_cell_length_c   8.89960384
_cell_angle_alpha   89.75092316
_cell_angle_beta   89.79312897
_cell_angle_gamma   110.98577881
_symmetry_Int_Tables_number   1
_chemical_formula_structural   LiEuPSe4
_chemical_formula_sum   'Li2 Eu2 P2 Se8'
_cell_volume   395.40376133
_cell_formula_units_Z   2
loop_
 _symmetry_equiv_pos_site_id
 _symmetry_equiv_pos_as_xyz
  1  'x, y, z'
loop_
 _atom_site_type_symbol
 _atom_site_label
 _atom_site_symmetry_multiplicity
 _atom_site_fract_x
 _atom_site_fract_y
 _atom_site_fract_z
 _atom_site_occupancy
  Li  Li0  1  0.29713938  0.09724613  0.19203506  1
  Li  Li1  1  0.95833933  0.38473484  0.69349313  1
  Eu  Eu2  1  0.62419093  0.72996831  0.94672841  1
  Eu  Eu3  1  0.62452143  0.73139000  0.44830000  1
  P  P4  1  0.26094529  0.09478927  0.69346493  1
  P  P5  1  0.99270833  0.36065313  0.19376329  1
  Se  Se6  1  0.36190036  0.98473936  0.46755555  1
  Se  Se7  1  0.90881133  0.97847199  0.69672614  1
  Se  Se8  1  0.88421673  0.46510696  0.96911848  1
  Se  Se9  1  0.33561498  0.49289560  0.19757076  1
  Se  Se10  1  0.36554366  0.44532937  0.69612575  1
  Se  Se11  1  0.88144195  0.46548644  0.40289408  1
  Se  Se12  1  0.88060039  0.01234636  0.19863664  1
  Se  Se13  1  0.36282861  0.98496711  0.90252811  1
