# generated using pymatgen
data_LiGd2Tl
_symmetry_space_group_name_H-M   'P 1'
_cell_length_a   5.32543039
_cell_length_b   5.33248711
_cell_length_c   5.30622339
_cell_angle_alpha   59.77610016
_cell_angle_beta   59.90633011
_cell_angle_gamma   59.94600296
_symmetry_Int_Tables_number   1
_chemical_formula_structural   LiGd2Tl
_chemical_formula_sum   'Li1 Gd2 Tl1'
_cell_volume   106.25044261
_cell_formula_units_Z   1
loop_
 _symmetry_equiv_pos_site_id
 _symmetry_equiv_pos_as_xyz
  1  'x, y, z'
loop_
 _atom_site_type_symbol
 _atom_site_label
 _atom_site_symmetry_multiplicity
 _atom_site_fract_x
 _atom_site_fract_y
 _atom_site_fract_z
 _atom_site_occupancy
  Li  Li0  1  0.83272994  0.42595363  0.12415182  1
  Gd  Gd1  1  0.08349557  0.67651898  0.37432155  1
  Gd  Gd2  1  0.58321720  0.17620498  0.87439644  1
  Tl  Tl3  1  0.33317181  0.92588377  0.62408388  1
