# generated using pymatgen
data_LiIr
_symmetry_space_group_name_H-M   'P 1'
_cell_length_a   3.04130387
_cell_length_b   3.04858780
_cell_length_c   3.05679965
_cell_angle_alpha   89.89991760
_cell_angle_beta   89.21768188
_cell_angle_gamma   90.11341095
_symmetry_Int_Tables_number   1
_chemical_formula_structural   LiIr
_chemical_formula_sum   'Li1 Ir1'
_cell_volume   28.33893196
_cell_formula_units_Z   1
loop_
 _symmetry_equiv_pos_site_id
 _symmetry_equiv_pos_as_xyz
  1  'x, y, z'
loop_
 _atom_site_type_symbol
 _atom_site_label
 _atom_site_symmetry_multiplicity
 _atom_site_fract_x
 _atom_site_fract_y
 _atom_site_fract_z
 _atom_site_occupancy
  Li  Li0  1  0.73819357  0.52361530  0.42333835  1
  Ir  Ir1  1  0.23827812  0.02362777  0.92325276  1
