# generated using pymatgen
data_LiLaTl2
_symmetry_space_group_name_H-M   'P 1'
_cell_length_a   5.34383869
_cell_length_b   5.33968925
_cell_length_c   5.33589840
_cell_angle_alpha   59.70311356
_cell_angle_beta   59.86714554
_cell_angle_gamma   59.94028091
_symmetry_Int_Tables_number   1
_chemical_formula_structural   LiLaTl2
_chemical_formula_sum   'Li1 La1 Tl2'
_cell_volume   107.26223377
_cell_formula_units_Z   1
loop_
 _symmetry_equiv_pos_site_id
 _symmetry_equiv_pos_as_xyz
  1  'x, y, z'
loop_
 _atom_site_type_symbol
 _atom_site_label
 _atom_site_symmetry_multiplicity
 _atom_site_fract_x
 _atom_site_fract_y
 _atom_site_fract_z
 _atom_site_occupancy
  Li  Li0  1  0.86606562  0.41546619  0.08232341  1
  La  La1  1  0.36591178  0.91549921  0.58220470  1
  Tl  Tl2  1  0.61599988  0.16585973  0.83238679  1
  Tl  Tl3  1  0.11655187  0.66589409  0.33238581  1
