# generated using pymatgen
data_LiMn2O2F3
_symmetry_space_group_name_H-M   'P 1'
_cell_length_a   5.33506441
_cell_length_b   5.56792068
_cell_length_c   7.84802008
_cell_angle_alpha   79.91425323
_cell_angle_beta   82.26469421
_cell_angle_gamma   82.32897949
_symmetry_Int_Tables_number   1
_chemical_formula_structural   LiMn2O2F3
_chemical_formula_sum   'Li2 Mn4 O4 F6'
_cell_volume   225.98792608
_cell_formula_units_Z   2
loop_
 _symmetry_equiv_pos_site_id
 _symmetry_equiv_pos_as_xyz
  1  'x, y, z'
loop_
 _atom_site_type_symbol
 _atom_site_label
 _atom_site_symmetry_multiplicity
 _atom_site_fract_x
 _atom_site_fract_y
 _atom_site_fract_z
 _atom_site_occupancy
  Li  Li0  1  0.05021838  0.89210194  0.85559124  1
  Li  Li1  1  0.06754032  0.31980678  0.09241972  1
  Mn  Mn2  1  0.44047323  0.83729678  0.52815580  1
  Mn  Mn3  1  0.65365028  0.44826871  0.84735072  1
  Mn  Mn4  1  0.62344754  0.85100889  0.09532195  1
  Mn  Mn5  1  0.62446624  0.38355502  0.42194083  1
  O  O6  1  0.54007542  0.10266744  0.47042453  1
  O  O7  1  0.49660343  0.68136442  0.31618369  1
  O  O8  1  0.58743376  0.54108489  0.61148840  1
  O  O9  1  0.83712023  0.62482351  0.96964639  1
  F  F10  1  0.40716323  0.81247151  0.85025758  1
  F  F11  1  0.95014012  0.21330440  0.81105971  1
  F  F12  1  0.09629842  0.83655488  0.58940816  1
  F  F13  1  0.42649692  0.24845469  0.03125717  1
  F  F14  1  0.96898729  0.35265490  0.32085827  1
  F  F15  1  0.00227212  0.99614012  0.10344314  1
