# generated using pymatgen
data_LiNdTl2
_symmetry_space_group_name_H-M   'P 1'
_cell_length_a   5.31597376
_cell_length_b   5.33013773
_cell_length_c   5.31230116
_cell_angle_alpha   59.94012070
_cell_angle_beta   59.97481537
_cell_angle_gamma   60.12973785
_symmetry_Int_Tables_number   1
_chemical_formula_structural   LiNdTl2
_chemical_formula_sum   'Li1 Nd1 Tl2'
_cell_volume   106.47136949
_cell_formula_units_Z   1
loop_
 _symmetry_equiv_pos_site_id
 _symmetry_equiv_pos_as_xyz
  1  'x, y, z'
loop_
 _atom_site_type_symbol
 _atom_site_label
 _atom_site_symmetry_multiplicity
 _atom_site_fract_x
 _atom_site_fract_y
 _atom_site_fract_z
 _atom_site_occupancy
  Li  Li0  1  0.94503260  0.81478077  0.32130000  1
  Nd  Nd1  1  0.44518635  0.31511828  0.82098764  1
  Tl  Tl2  1  0.69529986  0.56485093  0.07124523  1
  Tl  Tl3  1  0.19531502  0.06485563  0.57154894  1
