# generated using pymatgen
data_LiNiO2
_symmetry_space_group_name_H-M   'P 1'
_cell_length_a   4.93186045
_cell_length_b   5.60235119
_cell_length_c   5.72215080
_cell_angle_alpha   61.49569321
_cell_angle_beta   88.28866577
_cell_angle_gamma   89.38232422
_symmetry_Int_Tables_number   1
_chemical_formula_structural   LiNiO2
_chemical_formula_sum   'Li4 Ni4 O8'
_cell_volume   138.87499106
_cell_formula_units_Z   4
loop_
 _symmetry_equiv_pos_site_id
 _symmetry_equiv_pos_as_xyz
  1  'x, y, z'
loop_
 _atom_site_type_symbol
 _atom_site_label
 _atom_site_symmetry_multiplicity
 _atom_site_fract_x
 _atom_site_fract_y
 _atom_site_fract_z
 _atom_site_occupancy
  Li  Li0  1  0.71083790  0.49933755  0.04939045  1
  Li  Li1  1  0.21031855  0.49833870  0.54902393  1
  Li  Li2  1  0.21110156  0.99917877  0.54988515  1
  Li  Li3  1  0.21024849  0.99848473  0.04871107  1
  Ni  Ni4  1  0.71106720  0.99753350  0.04975577  1
  Ni  Ni5  1  0.71132952  0.49769002  0.54925936  1
  Ni  Ni6  1  0.71123862  0.99811828  0.54937232  1
  Ni  Ni7  1  0.21110895  0.49873763  0.04895615  1
  O  O8  1  0.46610373  0.66262060  0.21232191  1
  O  O9  1  0.94308430  0.33268666  0.39012054  1
  O  O10  1  0.46975699  0.66416156  0.70806062  1
  O  O11  1  0.96495312  0.83512396  0.89118081  1
  O  O12  1  0.96398091  0.33726880  0.88990909  1
  O  O13  1  0.48057947  0.16225816  0.70844126  1
  O  O14  1  0.93346649  0.83002746  0.39105788  1
  O  O15  1  0.46767595  0.16071004  0.21020353  1
