# generated using pymatgen
data_LiPrHg2
_symmetry_space_group_name_H-M   'P 1'
_cell_length_a   5.18617439
_cell_length_b   5.19409466
_cell_length_c   5.18732214
_cell_angle_alpha   59.76429749
_cell_angle_beta   59.92983246
_cell_angle_gamma   59.86359024
_symmetry_Int_Tables_number   1
_chemical_formula_structural   LiPrHg2
_chemical_formula_sum   'Li1 Pr1 Hg2'
_cell_volume   98.47544107
_cell_formula_units_Z   1
loop_
 _symmetry_equiv_pos_site_id
 _symmetry_equiv_pos_as_xyz
  1  'x, y, z'
loop_
 _atom_site_type_symbol
 _atom_site_label
 _atom_site_symmetry_multiplicity
 _atom_site_fract_x
 _atom_site_fract_y
 _atom_site_fract_z
 _atom_site_occupancy
  Li  Li0  1  0.37613478  0.51421171  0.00806379  1
  Pr  Pr1  1  0.87592000  0.01412335  0.50802457  1
  Hg  Hg2  1  0.62624872  0.76441532  0.25793305  1
  Hg  Hg3  1  0.12586252  0.26420364  0.75802910  1
