# generated using pymatgen
data_LiScHg2
_symmetry_space_group_name_H-M   'P 1'
_cell_length_a   4.91517878
_cell_length_b   4.92019939
_cell_length_c   4.90073252
_cell_angle_alpha   59.91453934
_cell_angle_beta   59.95336151
_cell_angle_gamma   59.98494720
_symmetry_Int_Tables_number   1
_chemical_formula_structural   LiScHg2
_chemical_formula_sum   'Li1 Sc1 Hg2'
_cell_volume   83.71134057
_cell_formula_units_Z   1
loop_
 _symmetry_equiv_pos_site_id
 _symmetry_equiv_pos_as_xyz
  1  'x, y, z'
loop_
 _atom_site_type_symbol
 _atom_site_label
 _atom_site_symmetry_multiplicity
 _atom_site_fract_x
 _atom_site_fract_y
 _atom_site_fract_z
 _atom_site_occupancy
  Li  Li0  1  0.42250872  0.94978142  0.82397187  1
  Sc  Sc1  1  0.92272615  0.44944844  0.32402375  1
  Hg  Hg2  1  0.67241693  0.20001696  0.07385851  1
  Hg  Hg3  1  0.17226709  0.69961083  0.57382256  1
