# generated using pymatgen
data_LiSm2Ru
_symmetry_space_group_name_H-M   'P 1'
_cell_length_a   5.01851368
_cell_length_b   5.03317165
_cell_length_c   5.02338076
_cell_angle_alpha   59.80299759
_cell_angle_beta   59.98286819
_cell_angle_gamma   59.94360733
_symmetry_Int_Tables_number   1
_chemical_formula_structural   LiSm2Ru
_chemical_formula_sum   'Li1 Sm2 Ru1'
_cell_volume   89.53776565
_cell_formula_units_Z   1
loop_
 _symmetry_equiv_pos_site_id
 _symmetry_equiv_pos_as_xyz
  1  'x, y, z'
loop_
 _atom_site_type_symbol
 _atom_site_label
 _atom_site_symmetry_multiplicity
 _atom_site_fract_x
 _atom_site_fract_y
 _atom_site_fract_z
 _atom_site_occupancy
  Li  Li0  1  0.35095587  0.96902573  0.01351782  1
  Sm  Sm1  1  0.60060716  0.21900831  0.26433986  1
  Sm  Sm2  1  0.10063377  0.71866417  0.76445311  1
  Ru  Ru3  1  0.85088366  0.46910876  0.51417160  1
