# generated using pymatgen
data_LiSmTl2
_symmetry_space_group_name_H-M   'P 1'
_cell_length_a   5.29679346
_cell_length_b   5.30661774
_cell_length_c   5.28685141
_cell_angle_alpha   59.88665390
_cell_angle_beta   59.95067978
_cell_angle_gamma   59.98888397
_symmetry_Int_Tables_number   1
_chemical_formula_structural   LiSmTl2
_chemical_formula_sum   'Li1 Sm1 Tl2'
_cell_volume   104.94005188
_cell_formula_units_Z   1
loop_
 _symmetry_equiv_pos_site_id
 _symmetry_equiv_pos_as_xyz
  1  'x, y, z'
loop_
 _atom_site_type_symbol
 _atom_site_label
 _atom_site_symmetry_multiplicity
 _atom_site_fract_x
 _atom_site_fract_y
 _atom_site_fract_z
 _atom_site_occupancy
  Li  Li0  1  0.54970831  0.37612760  0.64936268  1
  Sm  Sm1  1  0.04951715  0.87601972  0.14966048  1
  Tl  Tl2  1  0.29951343  0.12701489  0.39993691  1
  Tl  Tl3  1  0.79952163  0.62654388  0.89970666  1
