# generated using pymatgen
data_LiTaS2
_symmetry_space_group_name_H-M   'P 1'
_cell_length_a   3.36087418
_cell_length_b   3.35372639
_cell_length_c   12.57781124
_cell_angle_alpha   89.84759521
_cell_angle_beta   90.13226318
_cell_angle_gamma   121.40890503
_symmetry_Int_Tables_number   1
_chemical_formula_structural   LiTaS2
_chemical_formula_sum   'Li2 Ta2 S4'
_cell_volume   120.99608773
_cell_formula_units_Z   2
loop_
 _symmetry_equiv_pos_site_id
 _symmetry_equiv_pos_as_xyz
  1  'x, y, z'
loop_
 _atom_site_type_symbol
 _atom_site_label
 _atom_site_symmetry_multiplicity
 _atom_site_fract_x
 _atom_site_fract_y
 _atom_site_fract_z
 _atom_site_occupancy
  Li  Li0  1  0.15086955  0.52591884  0.02394911  1
  Li  Li1  1  0.15144995  0.52595907  0.52336204  1
  Ta  Ta2  1  0.15075390  0.52533323  0.27292392  1
  Ta  Ta3  1  0.15105295  0.52620566  0.77318561  1
  S  S4  1  0.48463345  0.19287060  0.64869332  1
  S  S5  1  0.81695527  0.85937387  0.14849761  1
  S  S6  1  0.81772017  0.85946041  0.39694613  1
  S  S7  1  0.48443642  0.19259122  0.89676982  1
