# generated using pymatgen
data_LiTaRu2
_symmetry_space_group_name_H-M   'P 1'
_cell_length_a   4.31776047
_cell_length_b   4.31317282
_cell_length_c   4.31417274
_cell_angle_alpha   59.88778305
_cell_angle_beta   59.82611084
_cell_angle_gamma   60.15651703
_symmetry_Int_Tables_number   1
_chemical_formula_structural   LiTaRu2
_chemical_formula_sum   'Li1 Ta1 Ru2'
_cell_volume   56.75499474
_cell_formula_units_Z   1
loop_
 _symmetry_equiv_pos_site_id
 _symmetry_equiv_pos_as_xyz
  1  'x, y, z'
loop_
 _atom_site_type_symbol
 _atom_site_label
 _atom_site_symmetry_multiplicity
 _atom_site_fract_x
 _atom_site_fract_y
 _atom_site_fract_z
 _atom_site_occupancy
  Li  Li0  1  0.58544648  0.83012944  0.00479960  1
  Ta  Ta1  1  0.08500148  0.33037484  0.50487208  1
  Ru  Ru2  1  0.83494335  0.08043648  0.25478974  1
  Ru  Ru3  1  0.33516896  0.58114290  0.75488925  1
