# generated using pymatgen
data_LiTlO2
_symmetry_space_group_name_H-M   'P 1'
_cell_length_a   3.20758033
_cell_length_b   3.20324779
_cell_length_c   5.58823109
_cell_angle_alpha   73.23332977
_cell_angle_beta   73.57540894
_cell_angle_gamma   60.14085770
_symmetry_Int_Tables_number   1
_chemical_formula_structural   LiTlO2
_chemical_formula_sum   'Li1 Tl1 O2'
_cell_volume   47.00431123
_cell_formula_units_Z   1
loop_
 _symmetry_equiv_pos_site_id
 _symmetry_equiv_pos_as_xyz
  1  'x, y, z'
loop_
 _atom_site_type_symbol
 _atom_site_label
 _atom_site_symmetry_multiplicity
 _atom_site_fract_x
 _atom_site_fract_y
 _atom_site_fract_z
 _atom_site_occupancy
  Li  Li0  1  0.95657629  0.69725007  0.77272385  1
  Tl  Tl1  1  0.45738000  0.19659209  0.27329403  1
  O  O2  1  0.21916716  0.95574737  0.00670355  1
  O  O3  1  0.69595689  0.43917924  0.54346102  1
