# generated using pymatgen
data_LiTm2Ru
_symmetry_space_group_name_H-M   'P 1'
_cell_length_a   4.85111475
_cell_length_b   4.83742762
_cell_length_c   4.86446571
_cell_angle_alpha   60.06467819
_cell_angle_beta   60.35169983
_cell_angle_gamma   60.20223999
_symmetry_Int_Tables_number   1
_chemical_formula_structural   LiTm2Ru
_chemical_formula_sum   'Li1 Tm2 Ru1'
_cell_volume   81.09494764
_cell_formula_units_Z   1
loop_
 _symmetry_equiv_pos_site_id
 _symmetry_equiv_pos_as_xyz
  1  'x, y, z'
loop_
 _atom_site_type_symbol
 _atom_site_label
 _atom_site_symmetry_multiplicity
 _atom_site_fract_x
 _atom_site_fract_y
 _atom_site_fract_z
 _atom_site_occupancy
  Li  Li0  1  0.82315814  0.42600477  0.29528403  1
  Tm  Tm1  1  0.07353324  0.67643106  0.54544646  1
  Tm  Tm2  1  0.57299739  0.17602214  0.04547654  1
  Ru  Ru3  1  0.32304543  0.92643619  0.79543859  1
