# generated using pymatgen
data_LiTm2Rh
_symmetry_space_group_name_H-M   'P 1'
_cell_length_a   4.88078928
_cell_length_b   4.89344645
_cell_length_c   4.86465693
_cell_angle_alpha   59.90886688
_cell_angle_beta   59.75539780
_cell_angle_gamma   60.06621552
_symmetry_Int_Tables_number   1
_chemical_formula_structural   LiTm2Rh
_chemical_formula_sum   'Li1 Tm2 Rh1'
_cell_volume   81.98788714
_cell_formula_units_Z   1
loop_
 _symmetry_equiv_pos_site_id
 _symmetry_equiv_pos_as_xyz
  1  'x, y, z'
loop_
 _atom_site_type_symbol
 _atom_site_label
 _atom_site_symmetry_multiplicity
 _atom_site_fract_x
 _atom_site_fract_y
 _atom_site_fract_z
 _atom_site_occupancy
  Li  Li0  1  0.70582050  0.24958837  0.23323090  1
  Tm  Tm1  1  0.95589411  0.49968681  0.48347598  1
  Tm  Tm2  1  0.45559263  0.99926341  0.98375237  1
  Rh  Rh3  1  0.20577656  0.74948668  0.73369712  1
