# generated using pymatgen
data_LiV2F7
_symmetry_space_group_name_H-M   'P 1'
_cell_length_a   5.96516037
_cell_length_b   6.86648417
_cell_length_c   7.20407820
_cell_angle_alpha   92.64300537
_cell_angle_beta   89.06327820
_cell_angle_gamma   91.10515594
_symmetry_Int_Tables_number   1
_chemical_formula_structural   LiV2F7
_chemical_formula_sum   'Li2 V4 F14'
_cell_volume   294.67270557
_cell_formula_units_Z   2
loop_
 _symmetry_equiv_pos_site_id
 _symmetry_equiv_pos_as_xyz
  1  'x, y, z'
loop_
 _atom_site_type_symbol
 _atom_site_label
 _atom_site_symmetry_multiplicity
 _atom_site_fract_x
 _atom_site_fract_y
 _atom_site_fract_z
 _atom_site_occupancy
  Li  Li0  1  0.57327634  0.78111470  0.36747396  1
  Li  Li1  1  0.19864446  0.53547961  0.60336089  1
  V  V2  1  0.29030925  0.06636368  0.12605906  1
  V  V3  1  0.64379430  0.32372534  0.82915288  1
  V  V4  1  0.00838723  0.55480355  0.17127486  1
  V  V5  1  0.03330467  0.04107732  0.62593210  1
  F  F6  1  0.07673635  0.78124774  0.66952336  1
  F  F7  1  0.30752504  0.09860788  0.83273071  1
  F  F8  1  0.07570222  0.83673930  0.10680533  1
  F  F9  1  0.07807878  0.26822567  0.14509235  1
  F  F10  1  0.51502150  0.88491929  0.12601314  1
  F  F11  1  0.96958601  0.32915068  0.63148272  1
  F  F12  1  0.77860969  0.57482702  0.32588917  1
  F  F13  1  0.53143883  0.28632453  0.10063738  1
  F  F14  1  0.47074011  0.46500710  0.69633275  1
  F  F15  1  0.26724488  0.58281201  0.34287858  1
  F  F16  1  0.82224393  0.53197879  0.94935328  1
  F  F17  1  0.79862005  0.06758578  0.82196271  1
  F  F18  1  0.28806803  0.05407983  0.42672846  1
  F  F19  1  0.79435909  0.99754208  0.45608687  1
