# generated using pymatgen
data_LiV4O5F7
_symmetry_space_group_name_H-M   'P 1'
_cell_length_a   5.24019432
_cell_length_b   5.56897497
_cell_length_c   7.58141327
_cell_angle_alpha   92.76966095
_cell_angle_beta   90.02054596
_cell_angle_gamma   91.08761597
_symmetry_Int_Tables_number   1
_chemical_formula_structural   LiV4O5F7
_chemical_formula_sum   'Li1 V4 O5 F7'
_cell_volume   220.94623882
_cell_formula_units_Z   1
loop_
 _symmetry_equiv_pos_site_id
 _symmetry_equiv_pos_as_xyz
  1  'x, y, z'
loop_
 _atom_site_type_symbol
 _atom_site_label
 _atom_site_symmetry_multiplicity
 _atom_site_fract_x
 _atom_site_fract_y
 _atom_site_fract_z
 _atom_site_occupancy
  Li  Li0  1  0.84264404  0.47372240  0.10301215  1
  V  V1  1  0.78459144  0.89367276  0.88266629  1
  V  V2  1  0.32484898  0.34479809  0.84277153  1
  V  V3  1  0.76477003  0.91107190  0.39805117  1
  V  V4  1  0.30535898  0.41072315  0.39692059  1
  O  O5  1  0.61395198  0.13082580  0.42254287  1
  O  O6  1  0.49593675  0.06302633  0.83773172  1
  O  O7  1  0.04015489  0.54416382  0.33265460  1
  O  O8  1  0.52932000  0.64926797  0.42504174  1
  O  O9  1  0.22473697  0.35739562  0.62489331  1
  F  F10  1  0.62016261  0.55345404  0.84589934  1
  F  F11  1  0.08532742  0.04761699  0.33738995  1
  F  F12  1  0.99522573  0.17386423  0.94062287  1
  F  F13  1  0.90723956  0.85807616  0.64563280  1
  F  F14  1  0.11725087  0.63615751  0.93707025  1
  F  F15  1  0.72731131  0.83522356  0.12711455  1
  F  F16  1  0.42616004  0.35134706  0.12421776  1
