# generated using pymatgen
data_LiYbAlF6
_symmetry_space_group_name_H-M   'P 1'
_cell_length_a   5.46807194
_cell_length_b   5.61657763
_cell_length_c   8.45140743
_cell_angle_alpha   105.00739288
_cell_angle_beta   92.01964569
_cell_angle_gamma   117.34249878
_symmetry_Int_Tables_number   1
_chemical_formula_structural   LiYbAlF6
_chemical_formula_sum   'Li2 Yb2 Al2 F12'
_cell_volume   219.07075628
_cell_formula_units_Z   2
loop_
 _symmetry_equiv_pos_site_id
 _symmetry_equiv_pos_as_xyz
  1  'x, y, z'
loop_
 _atom_site_type_symbol
 _atom_site_label
 _atom_site_symmetry_multiplicity
 _atom_site_fract_x
 _atom_site_fract_y
 _atom_site_fract_z
 _atom_site_occupancy
  Li  Li0  1  0.23268661  0.37376285  0.90463775  1
  Li  Li1  1  0.48753557  0.95039123  0.42897487  1
  Yb  Yb2  1  0.87297565  0.67574191  0.66767925  1
  Yb  Yb3  1  0.86990464  0.67525798  0.16703321  1
  Al  Al4  1  0.52945673  0.00382772  0.90855378  1
  Al  Al5  1  0.21324505  0.34074143  0.41989884  1
  F  F6  1  0.23626114  0.73922604  0.99735749  1
  F  F7  1  0.52383989  0.30909303  0.02401648  1
  F  F8  1  0.07949284  0.59963644  0.41327703  1
  F  F9  1  0.65765768  0.73840767  0.91294736  1
  F  F10  1  0.12415402  0.42803660  0.66052330  1
  F  F11  1  0.49513838  0.31340280  0.52474684  1
  F  F12  1  0.89738047  0.23084877  0.01923636  1
  F  F13  1  0.85530633  0.08366498  0.33892232  1
  F  F14  1  0.23656434  0.02035981  0.78854102  1
  F  F15  1  0.63311541  0.94373912  0.67814589  1
  F  F16  1  0.23976479  0.04603774  0.28242600  1
  F  F17  1  0.49292105  0.58521163  0.33730045  1
