# generated using pymatgen
data_LiYF4
_symmetry_space_group_name_H-M   'P 1'
_cell_length_a   5.46332407
_cell_length_b   5.48036194
_cell_length_c   6.43182945
_cell_angle_alpha   115.37456512
_cell_angle_beta   115.10105896
_cell_angle_gamma   89.81822968
_symmetry_Int_Tables_number   1
_chemical_formula_structural   LiYF4
_chemical_formula_sum   'Li2 Y2 F8'
_cell_volume   153.76423217
_cell_formula_units_Z   2
loop_
 _symmetry_equiv_pos_site_id
 _symmetry_equiv_pos_as_xyz
  1  'x, y, z'
loop_
 _atom_site_type_symbol
 _atom_site_label
 _atom_site_symmetry_multiplicity
 _atom_site_fract_x
 _atom_site_fract_y
 _atom_site_fract_z
 _atom_site_occupancy
  Li  Li0  1  0.27594605  0.28797242  0.96625423  1
  Li  Li1  1  0.77595878  0.78789240  0.96684384  1
  Y  Y2  1  0.02415256  0.53771168  0.46728313  1
  Y  Y3  1  0.52439028  0.03726422  0.46727622  1
  F  F4  1  0.23348954  0.24075192  0.23689303  1
  F  F5  1  0.44909516  0.83194619  0.69759679  1
  F  F6  1  0.31227738  0.32307658  0.69756222  1
  F  F7  1  0.59253502  0.60073245  0.23707975  1
  F  F8  1  0.73246068  0.10172888  0.23711917  1
  F  F9  1  0.09314078  0.73954988  0.23713812  1
  F  F10  1  0.81526214  0.46618614  0.69671261  1
  F  F11  1  0.94979554  0.96689308  0.70086062  1
