# generated using pymatgen
data_LiYGa4
_symmetry_space_group_name_H-M   'P 1'
_cell_length_a   4.18353367
_cell_length_b   4.40746021
_cell_length_c   6.36019754
_cell_angle_alpha   110.90946960
_cell_angle_beta   90.54193878
_cell_angle_gamma   89.95780182
_symmetry_Int_Tables_number   1
_chemical_formula_structural   LiYGa4
_chemical_formula_sum   'Li1 Y1 Ga4'
_cell_volume   109.54577687
_cell_formula_units_Z   1
loop_
 _symmetry_equiv_pos_site_id
 _symmetry_equiv_pos_as_xyz
  1  'x, y, z'
loop_
 _atom_site_type_symbol
 _atom_site_label
 _atom_site_symmetry_multiplicity
 _atom_site_fract_x
 _atom_site_fract_y
 _atom_site_fract_z
 _atom_site_occupancy
  Li  Li0  1  0.35310805  0.42657074  0.42128292  1
  Y  Y1  1  0.35359108  0.09280865  0.76623273  1
  Ga  Ga2  1  0.85322165  0.91457784  0.39911145  1
  Ga  Ga3  1  0.85347462  0.58766079  0.76703668  1
  Ga  Ga4  1  0.35297447  0.75491303  0.09881376  1
  Ga  Ga5  1  0.85327667  0.26684803  0.11691735  1
