# generated using pymatgen
data_LiZrS2
_symmetry_space_group_name_H-M   'P 1'
_cell_length_a   3.66973400
_cell_length_b   3.68805885
_cell_length_c   6.49971867
_cell_angle_alpha   73.43801117
_cell_angle_beta   73.48652649
_cell_angle_gamma   59.61777115
_symmetry_Int_Tables_number   1
_chemical_formula_structural   LiZrS2
_chemical_formula_sum   'Li1 Zr1 S2'
_cell_volume   71.68812631
_cell_formula_units_Z   1
loop_
 _symmetry_equiv_pos_site_id
 _symmetry_equiv_pos_as_xyz
  1  'x, y, z'
loop_
 _atom_site_type_symbol
 _atom_site_label
 _atom_site_symmetry_multiplicity
 _atom_site_fract_x
 _atom_site_fract_y
 _atom_site_fract_z
 _atom_site_occupancy
  Li  Li0  1  0.01846554  0.20934702  0.65125018  1
  Zr  Zr1  1  0.51851630  0.70945042  0.15155305  1
  S  S2  1  0.26586911  0.45759556  0.90484256  1
  S  S3  1  0.76860887  0.96043533  0.39525649  1
