# generated using pymatgen
data_Lu2CoRh
_symmetry_space_group_name_H-M   'P 1'
_cell_length_a   4.74766827
_cell_length_b   4.74045849
_cell_length_c   4.73653460
_cell_angle_alpha   59.84827423
_cell_angle_beta   60.04186249
_cell_angle_gamma   59.95132446
_symmetry_Int_Tables_number   1
_chemical_formula_structural   Lu2CoRh
_chemical_formula_sum   'Lu2 Co1 Rh1'
_cell_volume   75.28753979
_cell_formula_units_Z   1
loop_
 _symmetry_equiv_pos_site_id
 _symmetry_equiv_pos_as_xyz
  1  'x, y, z'
loop_
 _atom_site_type_symbol
 _atom_site_label
 _atom_site_symmetry_multiplicity
 _atom_site_fract_x
 _atom_site_fract_y
 _atom_site_fract_z
 _atom_site_occupancy
  Lu  Lu0  1  0.75935942  0.23922206  0.12658989  1
  Lu  Lu1  1  0.25962299  0.73955917  0.62656295  1
  Co  Co2  1  0.00943594  0.48946801  0.37644941  1
  Rh  Rh3  1  0.50967681  0.98946667  0.87640387  1
