# generated using pymatgen
data_Lu2Si2O7
_symmetry_space_group_name_H-M   'P 1'
_cell_length_a   4.78106833
_cell_length_b   5.60848045
_cell_length_c   5.62722778
_cell_angle_alpha   76.28374481
_cell_angle_beta   82.54363251
_cell_angle_gamma   99.22946167
_symmetry_Int_Tables_number   1
_chemical_formula_structural   Lu2Si2O7
_chemical_formula_sum   'Lu2 Si2 O7'
_cell_volume   142.45795686
_cell_formula_units_Z   1
loop_
 _symmetry_equiv_pos_site_id
 _symmetry_equiv_pos_as_xyz
  1  'x, y, z'
loop_
 _atom_site_type_symbol
 _atom_site_label
 _atom_site_symmetry_multiplicity
 _atom_site_fract_x
 _atom_site_fract_y
 _atom_site_fract_z
 _atom_site_occupancy
  Lu  Lu0  1  0.21490674  0.54176795  0.58063287  1
  Lu  Lu1  1  0.21559973  0.16079246  0.19703639  1
  Si  Si2  1  0.80530977  0.63488466  0.10743091  1
  Si  Si3  1  0.62550747  0.07283814  0.67125708  1
  O  O4  1  0.49392641  0.46791241  0.27568290  1
  O  O5  1  0.43614802  0.93771666  0.50112116  1
  O  O6  1  0.43618011  0.24335065  0.80894446  1
  O  O7  1  0.99642855  0.77063286  0.27561191  1
  O  O8  1  0.99755603  0.47269589  0.97012711  1
  O  O9  1  0.93500549  0.24129599  0.49975759  1
  O  O10  1  0.71550649  0.85344017  0.88714099  1
