# generated using pymatgen
data_Lu4Ge8Pd
_symmetry_space_group_name_H-M   'P 1'
_cell_length_a   3.95349550
_cell_length_b   4.09987211
_cell_length_c   15.79909611
_cell_angle_alpha   89.85506439
_cell_angle_beta   90.09613037
_cell_angle_gamma   90.33291626
_symmetry_Int_Tables_number   1
_chemical_formula_structural   Lu4Ge8Pd
_chemical_formula_sum   'Lu4 Ge8 Pd1'
_cell_volume   256.07930268
_cell_formula_units_Z   1
loop_
 _symmetry_equiv_pos_site_id
 _symmetry_equiv_pos_as_xyz
  1  'x, y, z'
loop_
 _atom_site_type_symbol
 _atom_site_label
 _atom_site_symmetry_multiplicity
 _atom_site_fract_x
 _atom_site_fract_y
 _atom_site_fract_z
 _atom_site_occupancy
  Lu  Lu0  1  0.35145685  0.66193342  0.96618992  1
  Lu  Lu1  1  0.35150602  0.16231196  0.17531729  1
  Lu  Lu2  1  0.85095561  0.16223852  0.39683908  1
  Lu  Lu3  1  0.85099298  0.16191363  0.67726463  1
  Ge  Ge4  1  0.35131133  0.16198878  0.82606530  1
  Ge  Ge5  1  0.85119385  0.66204655  0.82355869  1
  Ge  Ge6  1  0.35102671  0.66215473  0.34373638  1
  Ge  Ge7  1  0.35115695  0.66169053  0.67289537  1
  Ge  Ge8  1  0.85115057  0.66168725  0.53085887  1
  Ge  Ge9  1  0.85120738  0.66194296  0.11137640  1
  Ge  Ge10  1  0.35105127  0.16189450  0.53135806  1
  Ge  Ge11  1  0.85158604  0.16170166  0.01194912  1
  Pd  Pd12  1  0.85090160  0.66084915  0.26177090  1
