# generated using pymatgen
data_Lu5CuPb3
_symmetry_space_group_name_H-M   'P 1'
_cell_length_a   6.53601837
_cell_length_b   8.98810863
_cell_length_c   8.98971462
_cell_angle_alpha   119.80038452
_cell_angle_beta   90.04792023
_cell_angle_gamma   89.93231201
_symmetry_Int_Tables_number   1
_chemical_formula_structural   Lu5CuPb3
_chemical_formula_sum   'Lu10 Cu2 Pb6'
_cell_volume   458.27677550
_cell_formula_units_Z   2
loop_
 _symmetry_equiv_pos_site_id
 _symmetry_equiv_pos_as_xyz
  1  'x, y, z'
loop_
 _atom_site_type_symbol
 _atom_site_label
 _atom_site_symmetry_multiplicity
 _atom_site_fract_x
 _atom_site_fract_y
 _atom_site_fract_z
 _atom_site_occupancy
  Lu  Lu0  1  0.30571282  0.57222247  0.69370556  1
  Lu  Lu1  1  0.80595118  0.57231599  0.94944519  1
  Lu  Lu2  1  0.80588424  0.06170315  0.69347143  1
  Lu  Lu3  1  0.80573916  0.31566748  0.43886074  1
  Lu  Lu4  1  0.30579740  0.31619674  0.94991136  1
  Lu  Lu5  1  0.05560168  0.98272699  0.02583899  1
  Lu  Lu6  1  0.55554438  0.98251456  0.02601073  1
  Lu  Lu7  1  0.30515301  0.06157681  0.43633637  1
  Lu  Lu8  1  0.55581528  0.64989847  0.36005080  1
  Lu  Lu9  1  0.05573452  0.64986676  0.35915565  1
  Cu  Cu10  1  0.05608084  0.31584617  0.69311780  1
  Cu  Cu11  1  0.55632955  0.31601620  0.69361305  1
  Pb  Pb12  1  0.80600077  0.31644720  0.08142913  1
  Pb  Pb13  1  0.30562031  0.92930245  0.69334280  1
  Pb  Pb14  1  0.30575991  0.70560527  0.08017786  1
  Pb  Pb15  1  0.30599016  0.31624544  0.30398783  1
  Pb  Pb16  1  0.80557740  0.70612836  0.69323307  1
  Pb  Pb17  1  0.80539101  0.92843693  0.30402100  1
