# generated using pymatgen
data_LuCuPbSe3
_symmetry_space_group_name_H-M   'P 1'
_cell_length_a   4.04585457
_cell_length_b   6.94318533
_cell_length_c   10.87033367
_cell_angle_alpha   90.00350952
_cell_angle_beta   89.92751312
_cell_angle_gamma   106.68802643
_symmetry_Int_Tables_number   1
_chemical_formula_structural   LuCuPbSe3
_chemical_formula_sum   'Lu2 Cu2 Pb2 Se6'
_cell_volume   292.49859361
_cell_formula_units_Z   2
loop_
 _symmetry_equiv_pos_site_id
 _symmetry_equiv_pos_as_xyz
  1  'x, y, z'
loop_
 _atom_site_type_symbol
 _atom_site_label
 _atom_site_symmetry_multiplicity
 _atom_site_fract_x
 _atom_site_fract_y
 _atom_site_fract_z
 _atom_site_occupancy
  Lu  Lu0  1  0.58088428  0.31856269  0.92741114  1
  Lu  Lu1  1  0.33349538  0.82532644  0.16174825  1
  Cu  Cu2  1  0.79995239  0.75781322  0.39272869  1
  Cu  Cu3  1  0.86383271  0.88658923  0.92688596  1
  Pb  Pb4  1  0.34278682  0.84533739  0.67113650  1
  Pb  Pb5  1  0.08853622  0.33317032  0.42689151  1
  Se  Se6  1  0.97810799  0.11317607  0.08857722  1
  Se  Se7  1  0.69512558  0.54174834  0.20883131  1
  Se  Se8  1  0.69356745  0.54463124  0.58880329  1
  Se  Se9  1  0.41304952  0.98174733  0.39461485  1
  Se  Se10  1  0.99360067  0.14141262  0.75147814  1
  Se  Se11  1  0.24229798  0.64334708  0.92377752  1
