# generated using pymatgen
data_LuMgZn2
_symmetry_space_group_name_H-M   'P 1'
_cell_length_a   4.81281614
_cell_length_b   4.79898930
_cell_length_c   4.79842329
_cell_angle_alpha   59.79206085
_cell_angle_beta   59.93425751
_cell_angle_gamma   60.01740265
_symmetry_Int_Tables_number   1
_chemical_formula_structural   LuMgZn2
_chemical_formula_sum   'Lu1 Mg1 Zn2'
_cell_volume   78.21440521
_cell_formula_units_Z   1
loop_
 _symmetry_equiv_pos_site_id
 _symmetry_equiv_pos_as_xyz
  1  'x, y, z'
loop_
 _atom_site_type_symbol
 _atom_site_label
 _atom_site_symmetry_multiplicity
 _atom_site_fract_x
 _atom_site_fract_y
 _atom_site_fract_z
 _atom_site_occupancy
  Lu  Lu0  1  0.57358575  0.53252035  0.87348139  1
  Mg  Mg1  1  0.07364493  0.03280028  0.37341219  1
  Zn  Zn2  1  0.82334077  0.78224301  0.12375399  1
  Zn  Zn3  1  0.32374465  0.28246662  0.62348998  1
