# generated using pymatgen
data_LuMn6GaGe5
_symmetry_space_group_name_H-M   'P 1'
_cell_length_a   5.10025978
_cell_length_b   5.07878351
_cell_length_c   8.15891552
_cell_angle_alpha   90.20023346
_cell_angle_beta   89.97307587
_cell_angle_gamma   120.10059357
_symmetry_Int_Tables_number   1
_chemical_formula_structural   LuMn6GaGe5
_chemical_formula_sum   'Lu1 Mn6 Ga1 Ge5'
_cell_volume   182.83983571
_cell_formula_units_Z   1
loop_
 _symmetry_equiv_pos_site_id
 _symmetry_equiv_pos_as_xyz
  1  'x, y, z'
loop_
 _atom_site_type_symbol
 _atom_site_label
 _atom_site_symmetry_multiplicity
 _atom_site_fract_x
 _atom_site_fract_y
 _atom_site_fract_z
 _atom_site_occupancy
  Lu  Lu0  1  0.57256389  0.01238079  0.81305027  1
  Mn  Mn1  1  0.07233983  0.01285715  0.06392021  1
  Mn  Mn2  1  0.07250816  0.51302612  0.06374260  1
  Mn  Mn3  1  0.07285736  0.51306534  0.56391913  1
  Mn  Mn4  1  0.57268506  0.51303345  0.06360174  1
  Mn  Mn5  1  0.07285773  0.01265225  0.56386077  1
  Mn  Mn6  1  0.57276809  0.51317483  0.56366342  1
  Ga  Ga7  1  0.57285237  0.01309173  0.15982412  1
  Ge  Ge8  1  0.57225507  0.01272506  0.47605366  1
  Ge  Ge9  1  0.90514779  0.67915517  0.81384480  1
  Ge  Ge10  1  0.23849848  0.34587309  0.31370163  1
  Ge  Ge11  1  0.90491450  0.67913091  0.31381014  1
  Ge  Ge12  1  0.23916568  0.34599692  0.81385410  1
