# generated using pymatgen
data_LuScO3
_symmetry_space_group_name_H-M   'P 1'
_cell_length_a   5.41765118
_cell_length_b   5.73994064
_cell_length_c   8.02744198
_cell_angle_alpha   89.85907745
_cell_angle_beta   89.66622925
_cell_angle_gamma   89.89174652
_symmetry_Int_Tables_number   1
_chemical_formula_structural   LuScO3
_chemical_formula_sum   'Lu4 Sc4 O12'
_cell_volume   249.62390304
_cell_formula_units_Z   4
loop_
 _symmetry_equiv_pos_site_id
 _symmetry_equiv_pos_as_xyz
  1  'x, y, z'
loop_
 _atom_site_type_symbol
 _atom_site_label
 _atom_site_symmetry_multiplicity
 _atom_site_fract_x
 _atom_site_fract_y
 _atom_site_fract_z
 _atom_site_occupancy
  Lu  Lu0  1  0.12485123  0.15478839  0.87277156  1
  Lu  Lu1  1  0.62492287  0.52982855  0.36967990  1
  Lu  Lu2  1  0.66550654  0.65324891  0.87244022  1
  Lu  Lu3  1  0.64440840  0.09073040  0.62009090  1
  Sc  Sc4  1  0.14512584  0.59267694  0.12179752  1
  Sc  Sc5  1  0.64506948  0.09090184  0.12174734  1
  Sc  Sc6  1  0.16552994  0.03005543  0.36606136  1
  Sc  Sc7  1  0.14439702  0.59128028  0.61976022  1
  O  O8  1  0.83334428  0.40732726  0.69361514  1
  O  O9  1  0.95975089  0.89965701  0.69711810  1
  O  O10  1  0.00421093  0.67158997  0.37033451  1
  O  O11  1  0.45707193  0.77971441  0.19511175  1
  O  O12  1  0.79559642  0.16173908  0.36710408  1
  O  O13  1  0.32507670  0.27982891  0.54178214  1
  O  O14  1  0.95515007  0.90111876  0.04570988  1
  O  O15  1  0.83274627  0.40006489  0.04273208  1
  O  O16  1  0.50402170  0.02342874  0.87276345  1
  O  O17  1  0.33098602  0.27877387  0.19481295  1
  O  O18  1  0.29099083  0.52510262  0.86865950  1
  O  O19  1  0.45537922  0.77824193  0.54518890  1
