# generated using pymatgen
data_LuZn3
_symmetry_space_group_name_H-M   'P 1'
_cell_length_a   5.71706295
_cell_length_b   5.96822119
_cell_length_c   8.36370277
_cell_angle_alpha   89.84973145
_cell_angle_beta   89.98374939
_cell_angle_gamma   90.28612518
_symmetry_Int_Tables_number   1
_chemical_formula_structural   LuZn3
_chemical_formula_sum   'Lu4 Zn12'
_cell_volume   285.37080931
_cell_formula_units_Z   4
loop_
 _symmetry_equiv_pos_site_id
 _symmetry_equiv_pos_as_xyz
  1  'x, y, z'
loop_
 _atom_site_type_symbol
 _atom_site_label
 _atom_site_symmetry_multiplicity
 _atom_site_fract_x
 _atom_site_fract_y
 _atom_site_fract_z
 _atom_site_occupancy
  Lu  Lu0  1  0.64730394  0.04398761  0.02401805  1
  Lu  Lu1  1  0.14825846  0.59136587  0.56429213  1
  Lu  Lu2  1  0.14824785  0.58930540  0.02382882  1
  Lu  Lu3  1  0.64807826  0.04538435  0.56671089  1
  Zn  Zn4  1  0.89836150  0.31131512  0.79638106  1
  Zn  Zn5  1  0.39691800  0.31427664  0.29712647  1
  Zn  Zn6  1  0.39673585  0.31132767  0.79672647  1
  Zn  Zn7  1  0.64796716  0.54831862  0.50453949  1
  Zn  Zn8  1  0.89803654  0.82772511  0.29664028  1
  Zn  Zn9  1  0.89890069  0.31368330  0.29712072  1
  Zn  Zn10  1  0.14790201  0.09138202  0.50867188  1
  Zn  Zn11  1  0.64805162  0.56001270  0.10820968  1
  Zn  Zn12  1  0.14747095  0.93764329  0.79696953  1
  Zn  Zn13  1  0.39617741  0.83093989  0.29705161  1
  Zn  Zn14  1  0.14780013  0.09191951  0.09001034  1
  Zn  Zn15  1  0.64763105  0.67893016  0.79743832  1
