# generated using pymatgen
data_Mg(InSe2)2
_symmetry_space_group_name_H-M   'P 1'
_cell_length_a   6.85999775
_cell_length_b   6.93381262
_cell_length_c   8.30121231
_cell_angle_alpha   89.82217407
_cell_angle_beta   89.79041290
_cell_angle_gamma   110.18246460
_symmetry_Int_Tables_number   1
_chemical_formula_structural   Mg(InSe2)2
_chemical_formula_sum   'Mg2 In4 Se8'
_cell_volume   370.60384495
_cell_formula_units_Z   2
loop_
 _symmetry_equiv_pos_site_id
 _symmetry_equiv_pos_as_xyz
  1  'x, y, z'
loop_
 _atom_site_type_symbol
 _atom_site_label
 _atom_site_symmetry_multiplicity
 _atom_site_fract_x
 _atom_site_fract_y
 _atom_site_fract_z
 _atom_site_occupancy
  Mg  Mg0  1  0.76951802  0.35458216  0.33137500  1
  Mg  Mg1  1  0.76911861  0.85402316  0.58981997  1
  In  In2  1  0.26948217  0.85411006  0.33231714  1
  In  In3  1  0.27017662  0.35616669  0.06287871  1
  In  In4  1  0.76923221  0.85406601  0.06348836  1
  In  In5  1  0.26872730  0.35411707  0.59723729  1
  Se  Se6  1  0.01572933  0.10397328  0.33128342  1
  Se  Se7  1  0.01592308  0.60225672  0.57260662  1
  Se  Se8  1  0.52694255  0.10220631  0.57299143  1
  Se  Se9  1  0.52561462  0.60197115  0.33103111  1
  Se  Se10  1  0.01692978  0.10377641  0.83001977  1
  Se  Se11  1  0.52557915  0.60826081  0.82916880  1
  Se  Se12  1  0.51786065  0.10405970  0.08678129  1
  Se  Se13  1  0.01626893  0.59987640  0.08827668  1
