# generated using pymatgen
data_Mg2Cd
_symmetry_space_group_name_H-M   'P 1'
_cell_length_a   5.33448887
_cell_length_b   5.34784222
_cell_length_c   6.06911659
_cell_angle_alpha   63.90245819
_cell_angle_beta   63.95979309
_cell_angle_gamma   60.24739075
_symmetry_Int_Tables_number   1
_chemical_formula_structural   Mg2Cd
_chemical_formula_sum   'Mg4 Cd2'
_cell_volume   129.46942854
_cell_formula_units_Z   2
loop_
 _symmetry_equiv_pos_site_id
 _symmetry_equiv_pos_as_xyz
  1  'x, y, z'
loop_
 _atom_site_type_symbol
 _atom_site_label
 _atom_site_symmetry_multiplicity
 _atom_site_fract_x
 _atom_site_fract_y
 _atom_site_fract_z
 _atom_site_occupancy
  Mg  Mg0  1  0.49980623  0.54758918  0.63966882  1
  Mg  Mg1  1  0.33254761  0.71451288  0.13893011  1
  Mg  Mg2  1  0.66621268  0.04647836  0.13996129  1
  Mg  Mg3  1  0.00031385  0.38006568  0.13925147  1
  Cd  Cd4  1  0.83152151  0.88136905  0.63871568  1
  Cd  Cd5  1  0.16520377  0.21413377  0.63879687  1
