# generated using pymatgen
data_MgCd(CO3)2
_symmetry_space_group_name_H-M   'P 1'
_cell_length_a   4.71229792
_cell_length_b   4.69756651
_cell_length_c   6.64323235
_cell_angle_alpha   90.32681274
_cell_angle_beta   89.89662933
_cell_angle_gamma   120.68853760
_symmetry_Int_Tables_number   1
_chemical_formula_structural   MgCd(CO3)2
_chemical_formula_sum   'Mg1 Cd1 C2 O6'
_cell_volume   126.45998122
_cell_formula_units_Z   1
loop_
 _symmetry_equiv_pos_site_id
 _symmetry_equiv_pos_as_xyz
  1  'x, y, z'
loop_
 _atom_site_type_symbol
 _atom_site_label
 _atom_site_symmetry_multiplicity
 _atom_site_fract_x
 _atom_site_fract_y
 _atom_site_fract_z
 _atom_site_occupancy
  Mg  Mg0  1  0.53036827  0.29975986  0.63336897  1
  Cd  Cd1  1  0.52924478  0.29912388  0.13319792  1
  C  C2  1  0.86415964  0.96034664  0.39155507  1
  C  C3  1  0.86375433  0.96051329  0.86832148  1
  O  O4  1  0.63208622  0.03730304  0.86356342  1
  O  O5  1  0.63494188  0.03694019  0.39221770  1
  O  O6  1  0.78012657  0.66552174  0.86452883  1
  O  O7  1  0.16001444  0.20844983  0.86520165  1
  O  O8  1  0.16348831  0.20632209  0.39236245  1
  O  O9  1  0.77582270  0.66503608  0.39294288  1
