# generated using pymatgen
data_MgCu4Sn
_symmetry_space_group_name_H-M   'P 1'
_cell_length_a   4.99309111
_cell_length_b   5.00472355
_cell_length_c   4.98034000
_cell_angle_alpha   59.87677765
_cell_angle_beta   59.99165344
_cell_angle_gamma   59.87349319
_symmetry_Int_Tables_number   1
_chemical_formula_structural   MgCu4Sn
_chemical_formula_sum   'Mg1 Cu4 Sn1'
_cell_volume   87.83023398
_cell_formula_units_Z   1
loop_
 _symmetry_equiv_pos_site_id
 _symmetry_equiv_pos_as_xyz
  1  'x, y, z'
loop_
 _atom_site_type_symbol
 _atom_site_label
 _atom_site_symmetry_multiplicity
 _atom_site_fract_x
 _atom_site_fract_y
 _atom_site_fract_z
 _atom_site_occupancy
  Mg  Mg0  1  0.93026823  0.77102810  0.68394786  1
  Cu  Cu1  1  0.30637646  0.64678848  0.05911070  1
  Cu  Cu2  1  0.30632725  0.14716238  0.05921887  1
  Cu  Cu3  1  0.30601561  0.14757922  0.55856198  1
  Cu  Cu4  1  0.80622602  0.14708471  0.05881139  1
  Sn  Sn5  1  0.67899412  0.52055669  0.43481404  1
