# generated using pymatgen
data_MgCu5
_symmetry_space_group_name_H-M   'P 1'
_cell_length_a   4.44320917
_cell_length_b   4.41448879
_cell_length_c   5.09500027
_cell_angle_alpha   64.29738617
_cell_angle_beta   64.20360565
_cell_angle_gamma   59.40394592
_symmetry_Int_Tables_number   1
_chemical_formula_structural   MgCu5
_chemical_formula_sum   'Mg1 Cu5'
_cell_volume   74.49012485
_cell_formula_units_Z   1
loop_
 _symmetry_equiv_pos_site_id
 _symmetry_equiv_pos_as_xyz
  1  'x, y, z'
loop_
 _atom_site_type_symbol
 _atom_site_label
 _atom_site_symmetry_multiplicity
 _atom_site_fract_x
 _atom_site_fract_y
 _atom_site_fract_z
 _atom_site_occupancy
  Mg  Mg0  1  0.82855546  0.35312393  0.18686132  1
  Cu  Cu1  1  0.65963161  0.52342999  0.68622983  1
  Cu  Cu2  1  0.32631388  0.18863258  0.68616182  1
  Cu  Cu3  1  0.99195659  0.85489643  0.68724495  1
  Cu  Cu4  1  0.16106297  0.68864596  0.18590108  1
  Cu  Cu5  1  0.49399558  0.01819817  0.18529883  1
