# generated using pymatgen
data_MgIn5
_symmetry_space_group_name_H-M   'P 1'
_cell_length_a   5.14932919
_cell_length_b   5.94242191
_cell_length_c   5.93166924
_cell_angle_alpha   119.84007263
_cell_angle_beta   90.04954529
_cell_angle_gamma   90.00875092
_symmetry_Int_Tables_number   1
_chemical_formula_structural   MgIn5
_chemical_formula_sum   'Mg1 In5'
_cell_volume   157.44144380
_cell_formula_units_Z   1
loop_
 _symmetry_equiv_pos_site_id
 _symmetry_equiv_pos_as_xyz
  1  'x, y, z'
loop_
 _atom_site_type_symbol
 _atom_site_label
 _atom_site_symmetry_multiplicity
 _atom_site_fract_x
 _atom_site_fract_y
 _atom_site_fract_z
 _atom_site_occupancy
  Mg  Mg0  1  0.72275370  0.67773682  0.06994353  1
  In  In1  1  0.22251512  0.34601516  0.73931557  1
  In  In2  1  0.22264639  0.67894942  0.40213659  1
  In  In3  1  0.22236069  0.01002773  0.07103524  1
  In  In4  1  0.72249091  0.34520403  0.40176907  1
  In  In5  1  0.72211021  0.01044825  0.73834723  1
