# generated using pymatgen
data_MgMnO3
_symmetry_space_group_name_H-M   'P 1'
_cell_length_a   5.04185438
_cell_length_b   5.01082516
_cell_length_c   9.21395683
_cell_angle_alpha   104.61968994
_cell_angle_beta   103.96955872
_cell_angle_gamma   94.33300018
_symmetry_Int_Tables_number   1
_chemical_formula_structural   MgMnO3
_chemical_formula_sum   'Mg4 Mn4 O12'
_cell_volume   216.26015078
_cell_formula_units_Z   4
loop_
 _symmetry_equiv_pos_site_id
 _symmetry_equiv_pos_as_xyz
  1  'x, y, z'
loop_
 _atom_site_type_symbol
 _atom_site_label
 _atom_site_symmetry_multiplicity
 _atom_site_fract_x
 _atom_site_fract_y
 _atom_site_fract_z
 _atom_site_occupancy
  Mg  Mg0  1  0.17111398  0.54060018  0.38023141  1
  Mg  Mg1  1  0.06077291  0.93168807  0.16759956  1
  Mg  Mg2  1  0.42585576  0.80013281  0.90426308  1
  Mg  Mg3  1  0.55954111  0.43266457  0.16775854  1
  Mn  Mn4  1  0.81205249  0.68556279  0.66815817  1
  Mn  Mn5  1  0.92313796  0.30071887  0.90191501  1
  Mn  Mn6  1  0.66828221  0.03844378  0.37953845  1
  Mn  Mn7  1  0.30658883  0.17642538  0.65573955  1
  O  O8  1  0.14272925  0.50117391  0.83271444  1
  O  O9  1  0.83134001  0.20329353  0.22344656  1
  O  O10  1  0.65330213  0.00214545  0.83274102  1
  O  O11  1  0.74572337  0.60264158  0.02147883  1
  O  O12  1  0.09516052  0.93943739  0.71089846  1
  O  O13  1  0.23506904  0.11372900  0.02370051  1
  O  O14  1  0.50250924  0.85948914  0.52039349  1
  O  O15  1  0.33751306  0.70645618  0.21769306  1
  O  O16  1  0.39883336  0.25130659  0.33329794  1
  O  O17  1  0.59012032  0.44217214  0.70991832  1
  O  O18  1  0.98352480  0.33290297  0.51947814  1
  O  O19  1  0.88627064  0.76643050  0.33334768  1
