# generated using pymatgen
data_MgMnTe4
_symmetry_space_group_name_H-M   'P 1'
_cell_length_a   7.21633816
_cell_length_b   7.29568958
_cell_length_c   7.28718090
_cell_angle_alpha   111.15522766
_cell_angle_beta   89.77713776
_cell_angle_gamma   89.86244965
_symmetry_Int_Tables_number   1
_chemical_formula_structural   MgMnTe4
_chemical_formula_sum   'Mg2 Mn2 Te8'
_cell_volume   357.79488394
_cell_formula_units_Z   2
loop_
 _symmetry_equiv_pos_site_id
 _symmetry_equiv_pos_as_xyz
  1  'x, y, z'
loop_
 _atom_site_type_symbol
 _atom_site_label
 _atom_site_symmetry_multiplicity
 _atom_site_fract_x
 _atom_site_fract_y
 _atom_site_fract_z
 _atom_site_occupancy
  Mg  Mg0  1  0.52166981  0.32699490  0.54044092  1
  Mg  Mg1  1  0.02138782  0.82669395  0.54100549  1
  Mn  Mn2  1  0.52192008  0.82643080  0.04081528  1
  Mn  Mn3  1  0.02191865  0.32778004  0.04067156  1
  Te  Te4  1  0.90956461  0.42409146  0.43223882  1
  Te  Te5  1  0.14619642  0.22354576  0.65535134  1
  Te  Te6  1  0.14950353  0.72467732  0.13499501  1
  Te  Te7  1  0.40787026  0.72745979  0.65575194  1
  Te  Te8  1  0.64707303  0.42684910  0.95431787  1
  Te  Te9  1  0.39532092  0.22324444  0.13705246  1
  Te  Te10  1  0.64381170  0.92558622  0.43327287  1
  Te  Te11  1  0.89504862  0.92662209  0.95095271  1
