# generated using pymatgen
data_MgPaTc2
_symmetry_space_group_name_H-M   'P 1'
_cell_length_a   4.69996834
_cell_length_b   4.68885374
_cell_length_c   4.69061518
_cell_angle_alpha   59.90878677
_cell_angle_beta   60.07883453
_cell_angle_gamma   59.97190475
_symmetry_Int_Tables_number   1
_chemical_formula_structural   MgPaTc2
_chemical_formula_sum   'Mg1 Pa1 Tc2'
_cell_volume   73.07041836
_cell_formula_units_Z   1
loop_
 _symmetry_equiv_pos_site_id
 _symmetry_equiv_pos_as_xyz
  1  'x, y, z'
loop_
 _atom_site_type_symbol
 _atom_site_label
 _atom_site_symmetry_multiplicity
 _atom_site_fract_x
 _atom_site_fract_y
 _atom_site_fract_z
 _atom_site_occupancy
  Mg  Mg0  1  0.14934549  0.74854839  0.01190617  1
  Pa  Pa1  1  0.64968616  0.24901563  0.51196980  1
  Tc  Tc2  1  0.39941761  0.99884397  0.26142001  1
  Tc  Tc3  1  0.89955181  0.49918777  0.76170695  1
