# generated using pymatgen
data_MgPaRh2
_symmetry_space_group_name_H-M   'P 1'
_cell_length_a   4.72475147
_cell_length_b   4.71912527
_cell_length_c   4.71176720
_cell_angle_alpha   59.78335190
_cell_angle_beta   59.87312698
_cell_angle_gamma   60.05548096
_symmetry_Int_Tables_number   1
_chemical_formula_structural   MgPaRh2
_chemical_formula_sum   'Mg1 Pa1 Rh2'
_cell_volume   74.12371774
_cell_formula_units_Z   1
loop_
 _symmetry_equiv_pos_site_id
 _symmetry_equiv_pos_as_xyz
  1  'x, y, z'
loop_
 _atom_site_type_symbol
 _atom_site_label
 _atom_site_symmetry_multiplicity
 _atom_site_fract_x
 _atom_site_fract_y
 _atom_site_fract_z
 _atom_site_occupancy
  Mg  Mg0  1  0.98409617  0.09522211  0.81693780  1
  Pa  Pa1  1  0.48423493  0.59558946  0.31694701  1
  Rh  Rh2  1  0.73374587  0.84525824  0.56725466  1
  Rh  Rh3  1  0.23363830  0.34519479  0.06707243  1
