# generated using pymatgen
data_MgScRh2
_symmetry_space_group_name_H-M   'P 1'
_cell_length_a   4.51337957
_cell_length_b   4.50075006
_cell_length_c   4.49319029
_cell_angle_alpha   59.80335617
_cell_angle_beta   59.89368439
_cell_angle_gamma   60.09473419
_symmetry_Int_Tables_number   1
_chemical_formula_structural   MgScRh2
_chemical_formula_sum   'Mg1 Sc1 Rh2'
_cell_volume   64.43716056
_cell_formula_units_Z   1
loop_
 _symmetry_equiv_pos_site_id
 _symmetry_equiv_pos_as_xyz
  1  'x, y, z'
loop_
 _atom_site_type_symbol
 _atom_site_label
 _atom_site_symmetry_multiplicity
 _atom_site_fract_x
 _atom_site_fract_y
 _atom_site_fract_z
 _atom_site_occupancy
  Mg  Mg0  1  0.16391724  0.22850743  0.82110602  1
  Sc  Sc1  1  0.66400266  0.72802991  0.32115611  1
  Rh  Rh2  1  0.41424420  0.47785386  0.07104746  1
  Rh  Rh3  1  0.91439152  0.97797185  0.57052952  1
