# generated using pymatgen
data_MgSiN2
_symmetry_space_group_name_H-M   'P 1'
_cell_length_a   4.37186384
_cell_length_b   4.48923874
_cell_length_c   4.49368620
_cell_angle_alpha   89.77825165
_cell_angle_beta   89.78370667
_cell_angle_gamma   89.84336090
_symmetry_Int_Tables_number   1
_chemical_formula_structural   MgSiN2
_chemical_formula_sum   'Mg2 Si2 N4'
_cell_volume   88.19300052
_cell_formula_units_Z   2
loop_
 _symmetry_equiv_pos_site_id
 _symmetry_equiv_pos_as_xyz
  1  'x, y, z'
loop_
 _atom_site_type_symbol
 _atom_site_label
 _atom_site_symmetry_multiplicity
 _atom_site_fract_x
 _atom_site_fract_y
 _atom_site_fract_z
 _atom_site_occupancy
  Mg  Mg0  1  0.87852615  0.47167793  0.32745540  1
  Mg  Mg1  1  0.87799305  0.97109413  0.82784039  1
  Si  Si2  1  0.37879676  0.47196829  0.82814229  1
  Si  Si3  1  0.37849486  0.97229534  0.32871515  1
  N  N4  1  0.57142216  0.22094147  0.57922399  1
  N  N5  1  0.18210489  0.71926856  0.57988483  1
  N  N6  1  0.57138377  0.72081250  0.08004877  1
  N  N7  1  0.18210879  0.21948837  0.08024290  1
