# generated using pymatgen
data_MgTaOs2
_symmetry_space_group_name_H-M   'P 1'
_cell_length_a   4.44383669
_cell_length_b   4.44091129
_cell_length_c   4.42482567
_cell_angle_alpha   59.47162247
_cell_angle_beta   59.58004379
_cell_angle_gamma   59.98944855
_symmetry_Int_Tables_number   1
_chemical_formula_structural   MgTaOs2
_chemical_formula_sum   'Mg1 Ta1 Os2'
_cell_volume   61.29518645
_cell_formula_units_Z   1
loop_
 _symmetry_equiv_pos_site_id
 _symmetry_equiv_pos_as_xyz
  1  'x, y, z'
loop_
 _atom_site_type_symbol
 _atom_site_label
 _atom_site_symmetry_multiplicity
 _atom_site_fract_x
 _atom_site_fract_y
 _atom_site_fract_z
 _atom_site_occupancy
  Mg  Mg0  1  0.09140696  0.48514414  0.52695018  1
  Ta  Ta1  1  0.59136987  0.98580706  0.02694084  1
  Os  Os2  1  0.34153247  0.73474997  0.77696431  1
  Os  Os3  1  0.84158283  0.23500969  0.27733195  1
