# generated using pymatgen
data_MgTi
_symmetry_space_group_name_H-M   'P 1'
_cell_length_a   4.99261522
_cell_length_b   6.01272392
_cell_length_c   6.04252958
_cell_angle_alpha   60.57949448
_cell_angle_beta   89.88672638
_cell_angle_gamma   89.80104065
_symmetry_Int_Tables_number   1
_chemical_formula_structural   MgTi
_chemical_formula_sum   'Mg4 Ti4'
_cell_volume   157.99838251
_cell_formula_units_Z   4
loop_
 _symmetry_equiv_pos_site_id
 _symmetry_equiv_pos_as_xyz
  1  'x, y, z'
loop_
 _atom_site_type_symbol
 _atom_site_label
 _atom_site_symmetry_multiplicity
 _atom_site_fract_x
 _atom_site_fract_y
 _atom_site_fract_z
 _atom_site_occupancy
  Mg  Mg0  1  0.34683952  0.09339938  0.77730805  1
  Mg  Mg1  1  0.34660837  0.58732790  0.28204468  1
  Mg  Mg2  1  0.34657615  0.09393124  0.28267083  1
  Mg  Mg3  1  0.84657848  0.92412513  0.11207134  1
  Ti  Ti4  1  0.84684831  0.91916865  0.61820114  1
  Ti  Ti5  1  0.34684104  0.59158248  0.77922255  1
  Ti  Ti6  1  0.84644264  0.42432615  0.10984115  1
  Ti  Ti7  1  0.84632909  0.42729366  0.61803210  1
