# generated using pymatgen
data_MgTiN2
_symmetry_space_group_name_H-M   'P 1'
_cell_length_a   5.37081623
_cell_length_b   5.37597036
_cell_length_c   5.93359709
_cell_angle_alpha   89.80689240
_cell_angle_beta   89.74700928
_cell_angle_gamma   68.68447113
_symmetry_Int_Tables_number   1
_chemical_formula_structural   MgTiN2
_chemical_formula_sum   'Mg4 Ti4 N8'
_cell_volume   159.60125206
_cell_formula_units_Z   4
loop_
 _symmetry_equiv_pos_site_id
 _symmetry_equiv_pos_as_xyz
  1  'x, y, z'
loop_
 _atom_site_type_symbol
 _atom_site_label
 _atom_site_symmetry_multiplicity
 _atom_site_fract_x
 _atom_site_fract_y
 _atom_site_fract_z
 _atom_site_occupancy
  Mg  Mg0  1  0.66383666  0.42694563  0.66008365  1
  Mg  Mg1  1  0.66421753  0.92670828  0.90951991  1
  Mg  Mg2  1  0.66397113  0.92710346  0.40983322  1
  Mg  Mg3  1  0.16364282  0.92782104  0.16004623  1
  Ti  Ti4  1  0.16368900  0.42703226  0.90964103  1
  Ti  Ti5  1  0.66426474  0.42634502  0.16000311  1
  Ti  Ti6  1  0.16426754  0.42671499  0.40946439  1
  Ti  Ti7  1  0.16417415  0.92737752  0.65981126  1
  N  N8  1  0.41032192  0.67250580  0.91012859  1
  N  N9  1  0.94040173  0.67861056  0.65978259  1
  N  N10  1  0.92000180  0.18311521  0.90974194  1
  N  N11  1  0.41096339  0.67320019  0.41032380  1
  N  N12  1  0.41643476  0.19725208  0.15967040  1
  N  N13  1  0.91519916  0.65829957  0.15979812  1
  N  N14  1  0.91923660  0.18581831  0.40940180  1
  N  N15  1  0.39117968  0.17875087  0.65972072  1
