# generated using pymatgen
data_MgU2O6
_symmetry_space_group_name_H-M   'P 1'
_cell_length_a   3.81795168
_cell_length_b   3.82110023
_cell_length_c   9.23794270
_cell_angle_alpha   78.17641449
_cell_angle_beta   78.18571472
_cell_angle_gamma   60.63037872
_symmetry_Int_Tables_number   1
_chemical_formula_structural   MgU2O6
_chemical_formula_sum   'Mg1 U2 O6'
_cell_volume   114.09510795
_cell_formula_units_Z   1
loop_
 _symmetry_equiv_pos_site_id
 _symmetry_equiv_pos_as_xyz
  1  'x, y, z'
loop_
 _atom_site_type_symbol
 _atom_site_label
 _atom_site_symmetry_multiplicity
 _atom_site_fract_x
 _atom_site_fract_y
 _atom_site_fract_z
 _atom_site_occupancy
  Mg  Mg0  1  0.78516978  0.64284658  0.79276890  1
  U  U1  1  0.01883616  0.87573040  0.09609064  1
  U  U2  1  0.23603660  0.09098469  0.45317772  1
  O  O3  1  0.93640411  0.79158217  0.34486520  1
  O  O4  1  0.43551296  0.29165909  0.84617305  1
  O  O5  1  0.71071565  0.56591249  0.02541888  1
  O  O6  1  0.55297834  0.40721390  0.49139610  1
  O  O7  1  0.31746358  0.17322190  0.19426587  1
  O  O8  1  0.14963551  0.00452634  0.69387907  1
