# generated using pymatgen
data_MgV2O6
_symmetry_space_group_name_H-M   'P 1'
_cell_length_a   5.01603985
_cell_length_b   5.01458883
_cell_length_c   5.14948606
_cell_angle_alpha   99.41967010
_cell_angle_beta   99.47178650
_cell_angle_gamma   120.49000549
_symmetry_Int_Tables_number   1
_chemical_formula_structural   MgV2O6
_chemical_formula_sum   'Mg1 V2 O6'
_cell_volume   105.33654097
_cell_formula_units_Z   1
loop_
 _symmetry_equiv_pos_site_id
 _symmetry_equiv_pos_as_xyz
  1  'x, y, z'
loop_
 _atom_site_type_symbol
 _atom_site_label
 _atom_site_symmetry_multiplicity
 _atom_site_fract_x
 _atom_site_fract_y
 _atom_site_fract_z
 _atom_site_occupancy
  Mg  Mg0  1  0.59512663  0.89355272  0.71884018  1
  V  V1  1  0.40098149  0.09026068  0.21905507  1
  V  V2  1  0.06033468  0.43434680  0.21493827  1
  O  O3  1  0.66928113  0.30016315  0.00901407  1
  O  O4  1  0.31512371  0.70984370  0.99565202  1
  O  O5  1  0.41653877  0.45537812  0.43859541  1
  O  O6  1  0.78127766  0.17980380  0.44161609  1
  O  O7  1  0.01236209  0.04923112  0.00120687  1
  O  O8  1  0.20854260  0.82311428  0.43887511  1
