# generated using pymatgen
data_MgVSiO5
_symmetry_space_group_name_H-M   'P 1'
_cell_length_a   5.26023865
_cell_length_b   5.38375378
_cell_length_c   7.17952681
_cell_angle_alpha   107.63249969
_cell_angle_beta   106.98630524
_cell_angle_gamma   98.72913361
_symmetry_Int_Tables_number   1
_chemical_formula_structural   MgVSiO5
_chemical_formula_sum   'Mg2 V2 Si2 O10'
_cell_volume   178.76303706
_cell_formula_units_Z   2
loop_
 _symmetry_equiv_pos_site_id
 _symmetry_equiv_pos_as_xyz
  1  'x, y, z'
loop_
 _atom_site_type_symbol
 _atom_site_label
 _atom_site_symmetry_multiplicity
 _atom_site_fract_x
 _atom_site_fract_y
 _atom_site_fract_z
 _atom_site_occupancy
  Mg  Mg0  1  0.15352562  0.49261072  0.59398007  1
  Mg  Mg1  1  0.69016886  0.75539011  0.03518574  1
  V  V2  1  0.42069894  0.12004113  0.81038952  1
  V  V3  1  0.41946954  0.12341768  0.31041902  1
  Si  Si4  1  0.09856210  0.47242734  0.06177346  1
  Si  Si5  1  0.75122023  0.76706475  0.56139249  1
  O  O6  1  0.73831218  0.44522566  0.45245969  1
  O  O7  1  0.16592772  0.33630791  0.23361538  1
  O  O8  1  0.04948504  0.86147738  0.71878582  1
  O  O9  1  0.32587117  0.19300662  0.55961972  1
  O  O10  1  0.66682202  0.89386404  0.37592900  1
  O  O11  1  0.78837472  0.37411186  0.89738411  1
  O  O12  1  0.53568071  0.78167313  0.69027919  1
  O  O13  1  0.50918519  0.05048804  0.06202528  1
  O  O14  1  0.31370473  0.46359256  0.92674541  1
  O  O15  1  0.10357390  0.78598702  0.17573117  1
