# generated using pymatgen
data_MgZn3S4
_symmetry_space_group_name_H-M   'P 1'
_cell_length_a   3.88836241
_cell_length_b   5.98908901
_cell_length_c   7.67091370
_cell_angle_alpha   90.34964752
_cell_angle_beta   89.93758392
_cell_angle_gamma   89.97409058
_symmetry_Int_Tables_number   1
_chemical_formula_structural   MgZn3S4
_chemical_formula_sum   'Mg1 Zn3 S4'
_cell_volume   178.63485839
_cell_formula_units_Z   1
loop_
 _symmetry_equiv_pos_site_id
 _symmetry_equiv_pos_as_xyz
  1  'x, y, z'
loop_
 _atom_site_type_symbol
 _atom_site_label
 _atom_site_symmetry_multiplicity
 _atom_site_fract_x
 _atom_site_fract_y
 _atom_site_fract_z
 _atom_site_occupancy
  Mg  Mg0  1  0.23567814  0.97913414  0.18163998  1
  Zn  Zn1  1  0.23568897  0.41020933  0.68770045  1
  Zn  Zn2  1  0.73615283  0.91021168  0.50363994  1
  Zn  Zn3  1  0.73580778  0.48163751  0.00536054  1
  S  S4  1  0.23565425  0.27051303  0.97321320  1
  S  S5  1  0.23533863  0.12073204  0.48605260  1
  S  S6  1  0.73609108  0.62955976  0.71108115  1
  S  S7  1  0.73556828  0.75266689  0.21654876  1
