# generated using pymatgen
data_Mn2Au5
_symmetry_space_group_name_H-M   'P 1'
_cell_length_a   4.70467615
_cell_length_b   5.31681538
_cell_length_c   5.29729748
_cell_angle_alpha   101.62001801
_cell_angle_beta   90.83717346
_cell_angle_gamma   92.06920624
_symmetry_Int_Tables_number   1
_chemical_formula_structural   Mn2Au5
_chemical_formula_sum   'Mn2 Au5'
_cell_volume   129.67327320
_cell_formula_units_Z   1
loop_
 _symmetry_equiv_pos_site_id
 _symmetry_equiv_pos_as_xyz
  1  'x, y, z'
loop_
 _atom_site_type_symbol
 _atom_site_label
 _atom_site_symmetry_multiplicity
 _atom_site_fract_x
 _atom_site_fract_y
 _atom_site_fract_z
 _atom_site_occupancy
  Mn  Mn0  1  0.71346331  0.77979875  0.16080874  1
  Mn  Mn1  1  0.19920485  0.42987061  0.81553286  1
  Au  Au2  1  0.71864009  0.26242542  0.01778818  1
  Au  Au3  1  0.19793341  0.55345601  0.32682097  1
  Au  Au4  1  0.45674250  0.10560739  0.48432827  1
  Au  Au5  1  0.20026238  0.93905967  0.96222728  1
  Au  Au6  1  0.71764284  0.64263666  0.65295869  1
