# generated using pymatgen
data_Mn2FeSbO6
_symmetry_space_group_name_H-M   'P 1'
_cell_length_a   5.25270987
_cell_length_b   5.32532263
_cell_length_c   5.32451534
_cell_angle_alpha   73.66674805
_cell_angle_beta   87.40077209
_cell_angle_gamma   62.35626984
_symmetry_Int_Tables_number   1
_chemical_formula_structural   Mn2FeSbO6
_chemical_formula_sum   'Mn2 Fe1 Sb1 O6'
_cell_volume   125.97669148
_cell_formula_units_Z   1
loop_
 _symmetry_equiv_pos_site_id
 _symmetry_equiv_pos_as_xyz
  1  'x, y, z'
loop_
 _atom_site_type_symbol
 _atom_site_label
 _atom_site_symmetry_multiplicity
 _atom_site_fract_x
 _atom_site_fract_y
 _atom_site_fract_z
 _atom_site_occupancy
  Mn  Mn0  1  0.10606477  0.33801347  0.40456504  1
  Mn  Mn1  1  0.47167990  0.17773762  0.90285552  1
  Fe  Fe2  1  0.46980327  0.67711204  0.40118709  1
  Sb  Sb3  1  0.10519357  0.83981919  0.90346563  1
  O  O4  1  0.78980976  0.76128924  0.15819073  1
  O  O5  1  0.18560261  0.05056743  0.14075468  1
  O  O6  1  0.41328210  0.91901946  0.65294582  1
  O  O7  1  0.79338652  0.25720745  0.65406102  1
  O  O8  1  0.40799204  0.46270773  0.15785831  1
  O  O9  1  0.18653515  0.58156198  0.65431958  1
