# generated using pymatgen
data_Mn2Fe4SiGe
_symmetry_space_group_name_H-M   'P 1'
_cell_length_a   3.65775132
_cell_length_b   3.66528559
_cell_length_c   6.89055395
_cell_angle_alpha   89.98756409
_cell_angle_beta   89.83049011
_cell_angle_gamma   90.15257263
_symmetry_Int_Tables_number   1
_chemical_formula_structural   Mn2Fe4SiGe
_chemical_formula_sum   'Mn2 Fe4 Si1 Ge1'
_cell_volume   92.37887756
_cell_formula_units_Z   1
loop_
 _symmetry_equiv_pos_site_id
 _symmetry_equiv_pos_as_xyz
  1  'x, y, z'
loop_
 _atom_site_type_symbol
 _atom_site_label
 _atom_site_symmetry_multiplicity
 _atom_site_fract_x
 _atom_site_fract_y
 _atom_site_fract_z
 _atom_site_occupancy
  Mn  Mn0  1  0.49009874  0.57014251  0.56251550  1
  Mn  Mn1  1  0.48984393  0.57050925  0.08270925  1
  Fe  Fe2  1  0.49032831  0.07038096  0.32580090  1
  Fe  Fe3  1  0.98949963  0.57042068  0.82122040  1
  Fe  Fe4  1  0.99005485  0.07011099  0.56455338  1
  Fe  Fe5  1  0.99012882  0.07002740  0.08362698  1
  Si  Si6  1  0.98974079  0.57004762  0.32319286  1
  Ge  Ge7  1  0.48991722  0.07012589  0.82189184  1
