# generated using pymatgen
data_Mn2P
_symmetry_space_group_name_H-M   'P 1'
_cell_length_a   3.37202501
_cell_length_b   5.99757195
_cell_length_c   6.02476740
_cell_angle_alpha   119.72341156
_cell_angle_beta   89.93473816
_cell_angle_gamma   90.02403259
_symmetry_Int_Tables_number   1
_chemical_formula_structural   Mn2P
_chemical_formula_sum   'Mn6 P3'
_cell_volume   105.81337453
_cell_formula_units_Z   3
loop_
 _symmetry_equiv_pos_site_id
 _symmetry_equiv_pos_as_xyz
  1  'x, y, z'
loop_
 _atom_site_type_symbol
 _atom_site_label
 _atom_site_symmetry_multiplicity
 _atom_site_fract_x
 _atom_site_fract_y
 _atom_site_fract_z
 _atom_site_occupancy
  Mn  Mn0  1  0.06116486  0.16676874  0.18187000  1
  Mn  Mn1  1  0.56158733  0.76624209  0.92222869  1
  Mn  Mn2  1  0.56106663  0.16861591  0.51817816  1
  Mn  Mn3  1  0.06109853  0.91274589  0.66511029  1
  Mn  Mn4  1  0.06118248  0.42631143  0.92268968  1
  Mn  Mn5  1  0.56085366  0.57218951  0.32672381  1
  P  P6  1  0.06137348  0.50150687  0.58783770  1
  P  P7  1  0.06143997  0.83335489  0.25613892  1
  P  P8  1  0.56080955  0.16670859  0.92254359  1
