# generated using pymatgen
data_Mn3(OF2)2
_symmetry_space_group_name_H-M   'P 1'
_cell_length_a   4.80367374
_cell_length_b   5.94719076
_cell_length_c   7.98485327
_cell_angle_alpha   90.57216644
_cell_angle_beta   89.80179596
_cell_angle_gamma   89.35528564
_symmetry_Int_Tables_number   1
_chemical_formula_structural   Mn3(OF2)2
_chemical_formula_sum   'Mn6 O4 F8'
_cell_volume   228.08692563
_cell_formula_units_Z   2
loop_
 _symmetry_equiv_pos_site_id
 _symmetry_equiv_pos_as_xyz
  1  'x, y, z'
loop_
 _atom_site_type_symbol
 _atom_site_label
 _atom_site_symmetry_multiplicity
 _atom_site_fract_x
 _atom_site_fract_y
 _atom_site_fract_z
 _atom_site_occupancy
  Mn  Mn0  1  0.46137348  0.79764360  0.73345804  1
  Mn  Mn1  1  0.93775541  0.32957244  0.71461171  1
  Mn  Mn2  1  0.43921795  0.45785862  0.40495640  1
  Mn  Mn3  1  0.93930817  0.01742464  0.39759412  1
  Mn  Mn4  1  0.45147309  0.15879482  0.08583588  1
  Mn  Mn5  1  0.96951389  0.62453550  0.08210798  1
  O  O6  1  0.13435200  0.28567272  0.50598609  1
  O  O7  1  0.63764036  0.19172093  0.30254713  1
  O  O8  1  0.26543126  0.43700832  0.18368469  1
  O  O9  1  0.63867247  0.50596231  0.61465859  1
  F  F10  1  0.25937358  0.11538702  0.85041207  1
  F  F11  1  0.24222708  0.77933711  0.49180773  1
  F  F12  1  0.75866348  0.01563534  0.63754737  1
  F  F13  1  0.75696373  0.34191135  0.95334733  1
  F  F14  1  0.75038201  0.68923306  0.30673122  1
  F  F15  1  0.14051716  0.60677201  0.84308743  1
  F  F16  1  0.14270632  0.94315344  0.16981626  1
  F  F17  1  0.64333904  0.84795344  0.98441434  1
