# generated using pymatgen
data_Mn4Cr(Co2Si)5
_symmetry_space_group_name_H-M   'P 1'
_cell_length_a   3.97358036
_cell_length_b   3.97255135
_cell_length_c   16.12941933
_cell_angle_alpha   82.67976379
_cell_angle_beta   82.77205658
_cell_angle_gamma   59.04621887
_symmetry_Int_Tables_number   1
_chemical_formula_structural   Mn4Cr(Co2Si)5
_chemical_formula_sum   'Mn4 Cr1 Co10 Si5'
_cell_volume   216.02228155
_cell_formula_units_Z   1
loop_
 _symmetry_equiv_pos_site_id
 _symmetry_equiv_pos_as_xyz
  1  'x, y, z'
loop_
 _atom_site_type_symbol
 _atom_site_label
 _atom_site_symmetry_multiplicity
 _atom_site_fract_x
 _atom_site_fract_y
 _atom_site_fract_z
 _atom_site_occupancy
  Mn  Mn0  1  0.95567679  0.24534242  0.64409304  1
  Mn  Mn1  1  0.15878318  0.44749478  0.03487962  1
  Mn  Mn2  1  0.30707392  0.59641832  0.58537865  1
  Mn  Mn3  1  0.55534279  0.84376746  0.84875149  1
  Cr  Cr4  1  0.80405432  0.09177662  0.10068338  1
  Co  Co5  1  0.35550785  0.64410251  0.44324300  1
  Co  Co6  1  0.20741653  0.49816480  0.88240552  1
  Co  Co7  1  0.50223303  0.79203248  0.00797793  1
  Co  Co8  1  0.65770996  0.94584274  0.54245603  1
  Co  Co9  1  0.25723550  0.54725283  0.73606110  1
  Co  Co10  1  0.85548949  0.14422719  0.94354630  1
  Co  Co11  1  0.40833670  0.69759959  0.28656396  1
  Co  Co12  1  0.70437229  0.99240440  0.39951426  1
  Co  Co13  1  0.10640430  0.39410457  0.19550899  1
  Co  Co14  1  0.05583703  0.34477112  0.34170353  1
  Si  Si15  1  0.00724153  0.29736561  0.48226830  1
  Si  Si16  1  0.45502502  0.74512428  0.14701083  1
  Si  Si17  1  0.90238214  0.19259331  0.80467033  1
  Si  Si18  1  0.60470438  0.89565736  0.68802333  1
  Si  Si19  1  0.75263077  0.04127906  0.26139900  1
