# generated using pymatgen
data_Mn4FeC2
_symmetry_space_group_name_H-M   'P 1'
_cell_length_a   4.61875868
_cell_length_b   5.37222672
_cell_length_c   6.55158234
_cell_angle_alpha   68.44231415
_cell_angle_beta   69.87916565
_cell_angle_gamma   66.09619141
_symmetry_Int_Tables_number   1
_chemical_formula_structural   Mn4FeC2
_chemical_formula_sum   'Mn8 Fe2 C4'
_cell_volume   134.53608472
_cell_formula_units_Z   2
loop_
 _symmetry_equiv_pos_site_id
 _symmetry_equiv_pos_as_xyz
  1  'x, y, z'
loop_
 _atom_site_type_symbol
 _atom_site_label
 _atom_site_symmetry_multiplicity
 _atom_site_fract_x
 _atom_site_fract_y
 _atom_site_fract_z
 _atom_site_occupancy
  Mn  Mn0  1  0.45071551  0.36570647  0.49064413  1
  Mn  Mn1  1  0.79918057  0.73448241  0.43893716  1
  Mn  Mn2  1  0.16809088  0.03103922  0.82016128  1
  Mn  Mn3  1  0.16978174  0.53305036  0.82971132  1
  Mn  Mn4  1  0.04462310  0.41871926  0.21235704  1
  Mn  Mn5  1  0.40488866  0.74431694  0.15807806  1
  Mn  Mn6  1  0.66841906  0.03449896  0.82097411  1
  Mn  Mn7  1  0.69874817  0.14095837  0.15046909  1
  Fe  Fe8  1  0.66729552  0.52842706  0.81902122  1
  Fe  Fe9  1  0.14388256  0.01898556  0.43445554  1
  C  C10  1  0.91756588  0.79322165  0.07040840  1
  C  C11  1  0.26230687  0.13175370  0.07129525  1
  C  C12  1  0.91240549  0.29376009  0.59046155  1
  C  C13  1  0.40639874  0.74464446  0.59364325  1
