# generated using pymatgen
data_Mn5SnO12
_symmetry_space_group_name_H-M   'P 1'
_cell_length_a   5.02549314
_cell_length_b   5.07993031
_cell_length_c   9.03746510
_cell_angle_alpha   89.68624878
_cell_angle_beta   89.60499573
_cell_angle_gamma   66.29661560
_symmetry_Int_Tables_number   1
_chemical_formula_structural   Mn5SnO12
_chemical_formula_sum   'Mn5 Sn1 O12'
_cell_volume   211.24919723
_cell_formula_units_Z   1
loop_
 _symmetry_equiv_pos_site_id
 _symmetry_equiv_pos_as_xyz
  1  'x, y, z'
loop_
 _atom_site_type_symbol
 _atom_site_label
 _atom_site_symmetry_multiplicity
 _atom_site_fract_x
 _atom_site_fract_y
 _atom_site_fract_z
 _atom_site_occupancy
  Mn  Mn0  1  0.18199076  0.39073101  0.27732766  1
  Mn  Mn1  1  0.18243124  0.88705862  0.80107760  1
  Mn  Mn2  1  0.68368757  0.88642073  0.98692834  1
  Mn  Mn3  1  0.68203837  0.88823789  0.30032316  1
  Mn  Mn4  1  0.18338449  0.88548195  0.48409528  1
  Sn  Sn5  1  0.68252385  0.39007112  0.77686685  1
  O  O6  1  0.89001977  0.66015798  0.14820704  1
  O  O7  1  0.95388216  0.12256630  0.32694745  1
  O  O8  1  0.46194080  0.11972430  0.14875039  1
  O  O9  1  0.92119634  0.65860093  0.82611173  1
  O  O10  1  0.96367335  0.65930009  0.43187192  1
  O  O11  1  0.46373951  0.66026199  0.93339074  1
  O  O12  1  0.45288050  0.11907006  0.82591772  1
  O  O13  1  0.91575718  0.10758559  0.93852061  1
  O  O14  1  0.96792930  0.11009266  0.64772975  1
  O  O15  1  0.41374213  0.10883400  0.43366301  1
  O  O16  1  0.41543373  0.65792787  0.32690597  1
  O  O17  1  0.38885334  0.65801597  0.64824998  1
