# generated using pymatgen
data_MnAlFe2
_symmetry_space_group_name_H-M   'P 1'
_cell_length_a   4.03435898
_cell_length_b   4.03210258
_cell_length_c   4.04539585
_cell_angle_alpha   60.00576019
_cell_angle_beta   60.28833389
_cell_angle_gamma   60.18274307
_symmetry_Int_Tables_number   1
_chemical_formula_structural   MnAlFe2
_chemical_formula_sum   'Mn1 Al1 Fe2'
_cell_volume   46.69898668
_cell_formula_units_Z   1
loop_
 _symmetry_equiv_pos_site_id
 _symmetry_equiv_pos_as_xyz
  1  'x, y, z'
loop_
 _atom_site_type_symbol
 _atom_site_label
 _atom_site_symmetry_multiplicity
 _atom_site_fract_x
 _atom_site_fract_y
 _atom_site_fract_z
 _atom_site_occupancy
  Mn  Mn0  1  0.70234811  0.15443057  0.52274144  1
  Al  Al1  1  0.20218633  0.65439916  0.02188646  1
  Fe  Fe2  1  0.45243546  0.90423447  0.27226847  1
  Fe  Fe3  1  0.95240414  0.40429708  0.77243447  1
