# generated using pymatgen
data_MnCo2Si
_symmetry_space_group_name_H-M   'P 1'
_cell_length_a   3.96651483
_cell_length_b   3.97643733
_cell_length_c   3.94414902
_cell_angle_alpha   59.62619400
_cell_angle_beta   59.65277481
_cell_angle_gamma   60.10539246
_symmetry_Int_Tables_number   1
_chemical_formula_structural   MnCo2Si
_chemical_formula_sum   'Mn1 Co2 Si1'
_cell_volume   43.78186039
_cell_formula_units_Z   1
loop_
 _symmetry_equiv_pos_site_id
 _symmetry_equiv_pos_as_xyz
  1  'x, y, z'
loop_
 _atom_site_type_symbol
 _atom_site_label
 _atom_site_symmetry_multiplicity
 _atom_site_fract_x
 _atom_site_fract_y
 _atom_site_fract_z
 _atom_site_occupancy
  Mn  Mn0  1  0.17466751  0.00022936  0.78102553  1
  Co  Co1  1  0.42463654  0.25104451  0.03089172  1
  Co  Co2  1  0.92475736  0.75061297  0.53089273  1
  Si  Si3  1  0.67468280  0.49990827  0.28106281  1
