# generated using pymatgen
data_MnCoO3
_symmetry_space_group_name_H-M   'P 1'
_cell_length_a   4.98756599
_cell_length_b   4.99044991
_cell_length_c   5.40184307
_cell_angle_alpha   62.34325790
_cell_angle_beta   62.39266586
_cell_angle_gamma   60.55607605
_symmetry_Int_Tables_number   1
_chemical_formula_structural   MnCoO3
_chemical_formula_sum   'Mn2 Co2 O6'
_cell_volume   98.76834325
_cell_formula_units_Z   2
loop_
 _symmetry_equiv_pos_site_id
 _symmetry_equiv_pos_as_xyz
  1  'x, y, z'
loop_
 _atom_site_type_symbol
 _atom_site_label
 _atom_site_symmetry_multiplicity
 _atom_site_fract_x
 _atom_site_fract_y
 _atom_site_fract_z
 _atom_site_occupancy
  Mn  Mn0  1  0.72911364  0.29456058  0.04980738  1
  Mn  Mn1  1  0.42798400  0.99107683  0.95170748  1
  Co  Co2  1  0.92950237  0.49166444  0.45015842  1
  Co  Co3  1  0.22878976  0.79153079  0.55049443  1
  O  O4  1  0.12775408  0.39218965  0.75314939  1
  O  O5  1  0.52182025  0.69767421  0.75329673  1
  O  O6  1  0.82334936  0.08770038  0.75421244  1
  O  O7  1  0.63932663  0.58267713  0.25084460  1
  O  O8  1  0.33529043  0.19312942  0.24739516  1
  O  O9  1  0.01990336  0.89350158  0.25105536  1
