# generated using pymatgen
data_MnCo
_symmetry_space_group_name_H-M   'P 1'
_cell_length_a   2.91030169
_cell_length_b   2.92086959
_cell_length_c   2.93875098
_cell_angle_alpha   89.99172211
_cell_angle_beta   90.60215759
_cell_angle_gamma   90.22219849
_symmetry_Int_Tables_number   1
_chemical_formula_structural   MnCo
_chemical_formula_sum   'Mn1 Co1'
_cell_volume   24.97961337
_cell_formula_units_Z   1
loop_
 _symmetry_equiv_pos_site_id
 _symmetry_equiv_pos_as_xyz
  1  'x, y, z'
loop_
 _atom_site_type_symbol
 _atom_site_label
 _atom_site_symmetry_multiplicity
 _atom_site_fract_x
 _atom_site_fract_y
 _atom_site_fract_z
 _atom_site_occupancy
  Mn  Mn0  1  0.87969750  0.08099787  0.01062416  1
  Co  Co1  1  0.38019302  0.58099538  0.51121056  1
