# generated using pymatgen
data_MnCrSi2
_symmetry_space_group_name_H-M   'P 1'
_cell_length_a   4.58670950
_cell_length_b   4.55369473
_cell_length_c   4.56200838
_cell_angle_alpha   89.87172699
_cell_angle_beta   89.67572784
_cell_angle_gamma   90.14550781
_symmetry_Int_Tables_number   1
_chemical_formula_structural   MnCrSi2
_chemical_formula_sum   'Mn2 Cr2 Si4'
_cell_volume   95.28219816
_cell_formula_units_Z   2
loop_
 _symmetry_equiv_pos_site_id
 _symmetry_equiv_pos_as_xyz
  1  'x, y, z'
loop_
 _atom_site_type_symbol
 _atom_site_label
 _atom_site_symmetry_multiplicity
 _atom_site_fract_x
 _atom_site_fract_y
 _atom_site_fract_z
 _atom_site_occupancy
  Mn  Mn0  1  0.25563318  0.97136778  0.35827166  1
  Mn  Mn1  1  0.75528061  0.75760674  0.63592613  1
  Cr  Cr2  1  0.04043698  0.25959152  0.85679227  1
  Cr  Cr3  1  0.54000193  0.46983731  0.13588308  1
  Si  Si4  1  0.24644256  0.77582258  0.84357095  1
  Si  Si5  1  0.55273819  0.27416763  0.65020680  1
  Si  Si6  1  0.05179583  0.46268299  0.34472191  1
  Si  Si7  1  0.74660432  0.96004987  0.15153055  1
