# generated using pymatgen
data_MnCuSe4
_symmetry_space_group_name_H-M   'P 1'
_cell_length_a   6.17193556
_cell_length_b   6.18827438
_cell_length_c   6.17463827
_cell_angle_alpha   89.86450195
_cell_angle_beta   89.87813568
_cell_angle_gamma   90.05863190
_symmetry_Int_Tables_number   1
_chemical_formula_structural   MnCuSe4
_chemical_formula_sum   'Mn2 Cu2 Se8'
_cell_volume   235.83053632
_cell_formula_units_Z   2
loop_
 _symmetry_equiv_pos_site_id
 _symmetry_equiv_pos_as_xyz
  1  'x, y, z'
loop_
 _atom_site_type_symbol
 _atom_site_label
 _atom_site_symmetry_multiplicity
 _atom_site_fract_x
 _atom_site_fract_y
 _atom_site_fract_z
 _atom_site_occupancy
  Mn  Mn0  1  0.41416872  0.18557534  0.62685245  1
  Mn  Mn1  1  0.91349787  0.18607061  0.12821321  1
  Cu  Cu2  1  0.91369981  0.68360376  0.62729251  1
  Cu  Cu3  1  0.41368699  0.68465179  0.12718382  1
  Se  Se4  1  0.30595580  0.79779083  0.73768705  1
  Se  Se5  1  0.30353194  0.29415107  0.01694349  1
  Se  Se6  1  0.02629441  0.79683554  0.23797947  1
  Se  Se7  1  0.52913624  0.07415006  0.23926076  1
  Se  Se8  1  0.52695340  0.57069141  0.51780570  1
  Se  Se9  1  0.80236018  0.07163562  0.73806822  1
  Se  Se10  1  0.80682421  0.56969285  0.01727822  1
  Se  Se11  1  0.02935289  0.29736534  0.51728565  1
