# generated using pymatgen
data_MnCu2SiS4
_symmetry_space_group_name_H-M   'P 1'
_cell_length_a   5.56022167
_cell_length_b   5.60011005
_cell_length_c   9.53748512
_cell_angle_alpha   89.95819855
_cell_angle_beta   89.96765900
_cell_angle_gamma   90.02133942
_symmetry_Int_Tables_number   1
_chemical_formula_structural   MnCu2SiS4
_chemical_formula_sum   'Mn2 Cu4 Si2 S8'
_cell_volume   296.97666550
_cell_formula_units_Z   2
loop_
 _symmetry_equiv_pos_site_id
 _symmetry_equiv_pos_as_xyz
  1  'x, y, z'
loop_
 _atom_site_type_symbol
 _atom_site_label
 _atom_site_symmetry_multiplicity
 _atom_site_fract_x
 _atom_site_fract_y
 _atom_site_fract_z
 _atom_site_occupancy
  Mn  Mn0  1  0.99203861  0.29188445  0.69779664  1
  Mn  Mn1  1  0.49186960  0.29193631  0.94948852  1
  Cu  Cu2  1  0.49116597  0.29256985  0.44947511  1
  Cu  Cu3  1  0.49201348  0.79065436  0.69682431  1
  Cu  Cu4  1  0.49204171  0.79189438  0.19770353  1
  Cu  Cu5  1  0.99193156  0.29153565  0.19771767  1
  Si  Si6  1  0.99202472  0.79105675  0.44899723  1
  Si  Si7  1  0.99167037  0.79149997  0.94892907  1
  S  S8  1  0.22733998  0.02658437  0.32612249  1
  S  S9  1  0.75223494  0.02856142  0.56632435  1
  S  S10  1  0.22630216  0.55871826  0.06985670  1
  S  S11  1  0.75286603  0.55477947  0.32665825  1
  S  S12  1  0.22883634  0.55895013  0.56507480  1
  S  S13  1  0.23063563  0.02386072  0.82758570  1
  S  S14  1  0.75399208  0.02748350  0.06982806  1
  S  S15  1  0.75205183  0.55975354  0.82738751  1
