# generated using pymatgen
data_MnGaRh2
_symmetry_space_group_name_H-M   'P 1'
_cell_length_a   4.31645727
_cell_length_b   4.32548857
_cell_length_c   4.30062246
_cell_angle_alpha   59.53053284
_cell_angle_beta   59.88451004
_cell_angle_gamma   60.44067001
_symmetry_Int_Tables_number   1
_chemical_formula_structural   MnGaRh2
_chemical_formula_sum   'Mn1 Ga1 Rh2'
_cell_volume   56.70861826
_cell_formula_units_Z   1
loop_
 _symmetry_equiv_pos_site_id
 _symmetry_equiv_pos_as_xyz
  1  'x, y, z'
loop_
 _atom_site_type_symbol
 _atom_site_label
 _atom_site_symmetry_multiplicity
 _atom_site_fract_x
 _atom_site_fract_y
 _atom_site_fract_z
 _atom_site_occupancy
  Mn  Mn0  1  0.32541549  0.62071115  0.96144509  1
  Ga  Ga1  1  0.82573849  0.12008768  0.46166965  1
  Rh  Rh2  1  0.07590090  0.37062469  0.71167022  1
  Rh  Rh3  1  0.57592708  0.87028873  0.21170391  1
