# generated using pymatgen
data_MnInRh2
_symmetry_space_group_name_H-M   'P 1'
_cell_length_a   4.47527599
_cell_length_b   4.46982574
_cell_length_c   4.47224379
_cell_angle_alpha   59.94283295
_cell_angle_beta   60.02689362
_cell_angle_gamma   60.22233963
_symmetry_Int_Tables_number   1
_chemical_formula_structural   MnInRh2
_chemical_formula_sum   'Mn1 In1 Rh2'
_cell_volume   63.34978358
_cell_formula_units_Z   1
loop_
 _symmetry_equiv_pos_site_id
 _symmetry_equiv_pos_as_xyz
  1  'x, y, z'
loop_
 _atom_site_type_symbol
 _atom_site_label
 _atom_site_symmetry_multiplicity
 _atom_site_fract_x
 _atom_site_fract_y
 _atom_site_fract_z
 _atom_site_occupancy
  Mn  Mn0  1  0.53221852  0.64105701  0.17140576  1
  In  In1  1  0.03277567  0.14122842  0.67130989  1
  Rh  Rh2  1  0.28294694  0.39071277  0.92121983  1
  Rh  Rh3  1  0.78246373  0.89092517  0.42130968  1
