# generated using pymatgen
data_MnNiSnPd
_symmetry_space_group_name_H-M   'P 1'
_cell_length_a   4.44202423
_cell_length_b   4.43973064
_cell_length_c   4.42807198
_cell_angle_alpha   59.74745178
_cell_angle_beta   59.88797760
_cell_angle_gamma   59.99724960
_symmetry_Int_Tables_number   1
_chemical_formula_structural   MnNiSnPd
_chemical_formula_sum   'Mn1 Ni1 Sn1 Pd1'
_cell_volume   61.57789488
_cell_formula_units_Z   1
loop_
 _symmetry_equiv_pos_site_id
 _symmetry_equiv_pos_as_xyz
  1  'x, y, z'
loop_
 _atom_site_type_symbol
 _atom_site_label
 _atom_site_symmetry_multiplicity
 _atom_site_fract_x
 _atom_site_fract_y
 _atom_site_fract_z
 _atom_site_occupancy
  Mn  Mn0  1  0.82116449  0.81062710  0.07755917  1
  Ni  Ni1  1  0.07113159  0.06148487  0.32722765  1
  Sn  Sn2  1  0.32097244  0.31065276  0.57751411  1
  Pd  Pd3  1  0.57110208  0.56112921  0.82761514  1
