# generated using pymatgen
data_MnOF
_symmetry_space_group_name_H-M   'P 1'
_cell_length_a   4.76851702
_cell_length_b   5.61652374
_cell_length_c   7.82265425
_cell_angle_alpha   86.05087280
_cell_angle_beta   88.48148346
_cell_angle_gamma   88.47163391
_symmetry_Int_Tables_number   1
_chemical_formula_structural   MnOF
_chemical_formula_sum   'Mn6 O6 F6'
_cell_volume   208.87442829
_cell_formula_units_Z   6
loop_
 _symmetry_equiv_pos_site_id
 _symmetry_equiv_pos_as_xyz
  1  'x, y, z'
loop_
 _atom_site_type_symbol
 _atom_site_label
 _atom_site_symmetry_multiplicity
 _atom_site_fract_x
 _atom_site_fract_y
 _atom_site_fract_z
 _atom_site_occupancy
  Mn  Mn0  1  0.41751444  0.68821013  0.75787795  1
  Mn  Mn1  1  0.41794688  0.02710230  0.42899477  1
  Mn  Mn2  1  0.91898155  0.85533094  0.06090391  1
  Mn  Mn3  1  0.97659189  0.18953063  0.75858861  1
  Mn  Mn4  1  0.46260530  0.35535043  0.05908911  1
  Mn  Mn5  1  0.98456758  0.52705348  0.42843133  1
  O  O6  1  0.26737654  0.73915642  0.53060722  1
  O  O7  1  0.62169325  0.64139378  0.96956265  1
  O  O8  1  0.24608107  0.39409497  0.85014510  1
  O  O9  1  0.14136866  0.89303416  0.84805942  1
  O  O10  1  0.75303036  0.15872076  0.97225833  1
  O  O11  1  0.13725540  0.22729191  0.52515298  1
  F  F12  1  0.15341909  0.56034505  0.18468480  1
  F  F13  1  0.65321368  0.99111891  0.64664274  1
  F  F14  1  0.26383328  0.06835242  0.18022522  1
  F  F15  1  0.76589835  0.82024163  0.30841511  1
  F  F16  1  0.63614434  0.31999859  0.30750692  1
  F  F17  1  0.74061030  0.49281427  0.64612097  1
