# generated using pymatgen
data_Mo(HO2)2
_symmetry_space_group_name_H-M   'P 1'
_cell_length_a   5.11828661
_cell_length_b   5.63553715
_cell_length_c   5.80011892
_cell_angle_alpha   78.43717194
_cell_angle_beta   82.67222595
_cell_angle_gamma   87.42926788
_symmetry_Int_Tables_number   1
_chemical_formula_structural   Mo(HO2)2
_chemical_formula_sum   'Mo2 H4 O8'
_cell_volume   162.53437678
_cell_formula_units_Z   2
loop_
 _symmetry_equiv_pos_site_id
 _symmetry_equiv_pos_as_xyz
  1  'x, y, z'
loop_
 _atom_site_type_symbol
 _atom_site_label
 _atom_site_symmetry_multiplicity
 _atom_site_fract_x
 _atom_site_fract_y
 _atom_site_fract_z
 _atom_site_occupancy
  Mo  Mo0  1  0.95066738  0.57224596  0.00801787  1
  Mo  Mo1  1  0.45157823  0.60093379  0.50444573  1
  H  H2  1  0.18514208  0.16509585  0.56747782  1
  H  H3  1  0.59658974  0.85521680  0.01274714  1
  H  H4  1  0.50366813  0.07179037  0.51103896  1
  H  H5  1  0.00625178  0.10064374  0.01309938  1
  O  O6  1  0.78051645  0.50986242  0.32420635  1
  O  O7  1  0.14436005  0.68116587  0.68386000  1
  O  O8  1  0.78863156  0.91330624  0.94945467  1
  O  O9  1  0.57330799  0.92284089  0.44186944  1
  O  O10  1  0.27707225  0.66531640  0.18434019  1
  O  O11  1  0.67964137  0.47609538  0.82601762  1
  O  O12  1  0.08117050  0.23783806  0.05648454  1
  O  O13  1  0.32665643  0.27942118  0.55591601  1
