# generated using pymatgen
data_Mo2SeS3
_symmetry_space_group_name_H-M   'P 1'
_cell_length_a   3.06748033
_cell_length_b   2.98081899
_cell_length_c   35.18397141
_cell_angle_alpha   89.10402679
_cell_angle_beta   90.06753540
_cell_angle_gamma   124.80451202
_symmetry_Int_Tables_number   1
_chemical_formula_structural   Mo2SeS3
_chemical_formula_sum   'Mo4 Se2 S6'
_cell_volume   264.11199149
_cell_formula_units_Z   2
loop_
 _symmetry_equiv_pos_site_id
 _symmetry_equiv_pos_as_xyz
  1  'x, y, z'
loop_
 _atom_site_type_symbol
 _atom_site_label
 _atom_site_symmetry_multiplicity
 _atom_site_fract_x
 _atom_site_fract_y
 _atom_site_fract_z
 _atom_site_occupancy
  Mo  Mo0  1  0.98959428  0.22118980  0.98711103  1
  Mo  Mo1  1  0.32351056  0.88724524  0.55158353  1
  Mo  Mo2  1  0.32439086  0.88718730  0.17491381  1
  Mo  Mo3  1  0.99063408  0.22084410  0.36498690  1
  Se  Se4  1  0.32358071  0.88686895  0.93887609  1
  Se  Se5  1  0.32324946  0.88740987  0.31925562  1
  S  S6  1  0.98926365  0.22117472  0.59526831  1
  S  S7  1  0.98934567  0.22079676  0.21656702  1
  S  S8  1  0.32374719  0.88735741  0.02830097  1
  S  S9  1  0.98945355  0.22027293  0.50909275  1
  S  S10  1  0.98979789  0.22008160  0.13010685  1
  S  S11  1  0.32377213  0.88734895  0.40870923  1
