# generated using pymatgen
data_Mo3W(SeS)4
_symmetry_space_group_name_H-M   'P 1'
_cell_length_a   3.21941757
_cell_length_b   3.07678032
_cell_length_c   35.40457916
_cell_angle_alpha   89.40493774
_cell_angle_beta   90.41176605
_cell_angle_gamma   123.07538605
_symmetry_Int_Tables_number   1
_chemical_formula_structural   Mo3W(SeS)4
_chemical_formula_sum   'Mo3 W1 Se4 S4'
_cell_volume   293.85215813
_cell_formula_units_Z   1
loop_
 _symmetry_equiv_pos_site_id
 _symmetry_equiv_pos_as_xyz
  1  'x, y, z'
loop_
 _atom_site_type_symbol
 _atom_site_label
 _atom_site_symmetry_multiplicity
 _atom_site_fract_x
 _atom_site_fract_y
 _atom_site_fract_z
 _atom_site_occupancy
  Mo  Mo0  1  0.68301642  0.32001254  0.28958437  1
  Mo  Mo1  1  0.68375355  0.32032049  0.66262752  1
  Mo  Mo2  1  0.35023075  0.65385991  0.10224500  1
  W  W3  1  0.34910318  0.65305650  0.47927409  1
  Se  Se4  1  0.35000706  0.65323842  0.70930970  1
  Se  Se5  1  0.35008058  0.65314972  0.33286396  1
  Se  Se6  1  0.68283552  0.31959146  0.05635090  1
  Se  Se7  1  0.68300509  0.31957781  0.14887896  1
  S  S8  1  0.68329108  0.31981069  0.43723840  1
  S  S9  1  0.34974250  0.65318173  0.62313241  1
  S  S10  1  0.68319148  0.32013854  0.51946813  1
  S  S11  1  0.34930649  0.65320629  0.24748479  1
