# generated using pymatgen
data_Mo3W(SeS)4
_symmetry_space_group_name_H-M   'P 1'
_cell_length_a   3.22112513
_cell_length_b   3.23220277
_cell_length_c   35.01354980
_cell_angle_alpha   89.34806061
_cell_angle_beta   89.81240845
_cell_angle_gamma   119.13710022
_symmetry_Int_Tables_number   1
_chemical_formula_structural   Mo3W(SeS)4
_chemical_formula_sum   'Mo3 W1 Se4 S4'
_cell_volume   318.37114470
_cell_formula_units_Z   1
loop_
 _symmetry_equiv_pos_site_id
 _symmetry_equiv_pos_as_xyz
  1  'x, y, z'
loop_
 _atom_site_type_symbol
 _atom_site_label
 _atom_site_symmetry_multiplicity
 _atom_site_fract_x
 _atom_site_fract_y
 _atom_site_fract_z
 _atom_site_occupancy
  Mo  Mo0  1  0.56309092  0.89042985  0.85075384  1
  Mo  Mo1  1  0.22944154  0.22405577  0.27326965  1
  Mo  Mo2  1  0.56357527  0.89042675  0.46731284  1
  W  W3  1  0.22928143  0.22429284  0.65251279  1
  Se  Se4  1  0.56310254  0.88992774  0.70124018  1
  Se  Se5  1  0.56333786  0.89070463  0.61034822  1
  Se  Se6  1  0.22899163  0.22382143  0.41944429  1
  Se  Se7  1  0.22932965  0.22362369  0.80251878  1
  S  S8  1  0.56310493  0.89019781  0.22908621  1
  S  S9  1  0.22973540  0.22378473  0.89315003  1
  S  S10  1  0.22888450  0.22351018  0.50700146  1
  S  S11  1  0.56338179  0.89045465  0.31579721  1
