# generated using pymatgen
data_Mo6IrRu
_symmetry_space_group_name_H-M   'P 1'
_cell_length_a   4.94308710
_cell_length_b   4.93973160
_cell_length_c   4.95107079
_cell_angle_alpha   89.91680145
_cell_angle_beta   89.90252686
_cell_angle_gamma   89.92181396
_symmetry_Int_Tables_number   1
_chemical_formula_structural   Mo6IrRu
_chemical_formula_sum   'Mo6 Ir1 Ru1'
_cell_volume   120.89247292
_cell_formula_units_Z   1
loop_
 _symmetry_equiv_pos_site_id
 _symmetry_equiv_pos_as_xyz
  1  'x, y, z'
loop_
 _atom_site_type_symbol
 _atom_site_label
 _atom_site_symmetry_multiplicity
 _atom_site_fract_x
 _atom_site_fract_y
 _atom_site_fract_z
 _atom_site_occupancy
  Mo  Mo0  1  0.30649686  0.12606628  0.14214088  1
  Mo  Mo1  1  0.55731642  0.62429357  0.39186010  1
  Mo  Mo2  1  0.05666211  0.37538743  0.64234746  1
  Mo  Mo3  1  0.05713719  0.87096763  0.64294130  1
  Mo  Mo4  1  0.55737162  0.62444991  0.89250600  1
  Mo  Mo5  1  0.80719894  0.12455858  0.14254102  1
  Ir  Ir6  1  0.55759054  0.12448027  0.64301497  1
  Ru  Ru7  1  0.05713892  0.62482440  0.14281176  1
