# generated using pymatgen
data_MoCl3
_symmetry_space_group_name_H-M   'P 1'
_cell_length_a   5.71900368
_cell_length_b   7.09856606
_cell_length_c   7.05026340
_cell_angle_alpha   60.57885361
_cell_angle_beta   89.92538452
_cell_angle_gamma   90.12729645
_symmetry_Int_Tables_number   1
_chemical_formula_structural   MoCl3
_chemical_formula_sum   'Mo2 Cl6'
_cell_volume   249.30330191
_cell_formula_units_Z   2
loop_
 _symmetry_equiv_pos_site_id
 _symmetry_equiv_pos_as_xyz
  1  'x, y, z'
loop_
 _atom_site_type_symbol
 _atom_site_label
 _atom_site_symmetry_multiplicity
 _atom_site_fract_x
 _atom_site_fract_y
 _atom_site_fract_z
 _atom_site_occupancy
  Mo  Mo0  1  0.41196063  0.27066910  0.47158760  1
  Mo  Mo1  1  0.91232598  0.27111304  0.47132975  1
  Cl  Cl2  1  0.16490142  0.27007896  0.75810313  1
  Cl  Cl3  1  0.66458136  0.98558199  0.75939739  1
  Cl  Cl4  1  0.16441154  0.98439437  0.47334209  1
  Cl  Cl5  1  0.16346560  0.55699784  0.19054028  1
  Cl  Cl6  1  0.66394967  0.27026543  0.19019347  1
  Cl  Cl7  1  0.66534698  0.55579942  0.47407588  1
