# generated using pymatgen
data_MoPb2O5
_symmetry_space_group_name_H-M   'P 1'
_cell_length_a   5.72515774
_cell_length_b   6.77136087
_cell_length_c   8.20775032
_cell_angle_alpha   109.19006348
_cell_angle_beta   90.81707001
_cell_angle_gamma   114.84943390
_symmetry_Int_Tables_number   1
_chemical_formula_structural   MoPb2O5
_chemical_formula_sum   'Mo2 Pb4 O10'
_cell_volume   268.34140181
_cell_formula_units_Z   2
loop_
 _symmetry_equiv_pos_site_id
 _symmetry_equiv_pos_as_xyz
  1  'x, y, z'
loop_
 _atom_site_type_symbol
 _atom_site_label
 _atom_site_symmetry_multiplicity
 _atom_site_fract_x
 _atom_site_fract_y
 _atom_site_fract_z
 _atom_site_occupancy
  Mo  Mo0  1  0.17041042  0.46979353  0.68548769  1
  Mo  Mo1  1  0.15175988  0.45927382  0.21813121  1
  Pb  Pb2  1  0.80574977  0.80767524  0.54625130  1
  Pb  Pb3  1  0.81491834  0.80360663  0.04226268  1
  Pb  Pb4  1  0.49280864  0.14434730  0.86853480  1
  Pb  Pb5  1  0.48361990  0.11665429  0.36873084  1
  O  O6  1  0.40668461  0.47027731  0.83312935  1
  O  O7  1  0.73693764  0.95394576  0.84053093  1
  O  O8  1  0.96532696  0.46371287  0.03070682  1
  O  O9  1  0.53886312  0.73987174  0.25916895  1
  O  O10  1  0.85799265  0.24170780  0.62457472  1
  O  O11  1  0.28104937  0.23916616  0.12446170  1
  O  O12  1  0.36911401  0.46394092  0.50249279  1
  O  O13  1  0.86986345  0.23979926  0.25894019  1
  O  O14  1  0.13184397  0.74180138  0.75998181  1
  O  O15  1  0.12591100  0.74204147  0.36568701  1
