# generated using pymatgen
data_MoSeS
_symmetry_space_group_name_H-M   'P 1'
_cell_length_a   3.20739341
_cell_length_b   3.20924330
_cell_length_c   34.50490570
_cell_angle_alpha   89.96020508
_cell_angle_beta   90.15369415
_cell_angle_gamma   118.29988098
_symmetry_Int_Tables_number   1
_chemical_formula_structural   MoSeS
_chemical_formula_sum   'Mo4 Se4 S4'
_cell_volume   312.71789927
_cell_formula_units_Z   4
loop_
 _symmetry_equiv_pos_site_id
 _symmetry_equiv_pos_as_xyz
  1  'x, y, z'
loop_
 _atom_site_type_symbol
 _atom_site_label
 _atom_site_symmetry_multiplicity
 _atom_site_fract_x
 _atom_site_fract_y
 _atom_site_fract_z
 _atom_site_occupancy
  Mo  Mo0  1  0.03371861  0.03132009  0.67978823  1
  Mo  Mo1  1  0.03379054  0.03079120  0.05859040  1
  Mo  Mo2  1  0.70038944  0.36416817  0.87439579  1
  Mo  Mo3  1  0.69983464  0.36433226  0.24844953  1
  Se  Se4  1  0.69986922  0.36364159  0.10442977  1
  Se  Se5  1  0.70044768  0.36447489  0.72544777  1
  Se  Se6  1  0.03397507  0.03146135  0.27686831  1
  Se  Se7  1  0.03285887  0.03041429  0.82722116  1
  S  S8  1  0.03433364  0.03024114  0.91748464  1
  S  S9  1  0.70095164  0.36431059  0.39001858  1
  S  S10  1  0.69958067  0.36385965  0.01748209  1
  S  S11  1  0.69991940  0.36409238  0.63425773  1
