# generated using pymatgen
data_MoW(SeS)2
_symmetry_space_group_name_H-M   'P 1'
_cell_length_a   3.27970982
_cell_length_b   3.06306934
_cell_length_c   34.82217407
_cell_angle_alpha   89.60623932
_cell_angle_beta   89.83689880
_cell_angle_gamma   117.86035156
_symmetry_Int_Tables_number   1
_chemical_formula_structural   MoW(SeS)2
_chemical_formula_sum   'Mo2 W2 Se4 S4'
_cell_volume   309.26001622
_cell_formula_units_Z   2
loop_
 _symmetry_equiv_pos_site_id
 _symmetry_equiv_pos_as_xyz
  1  'x, y, z'
loop_
 _atom_site_type_symbol
 _atom_site_label
 _atom_site_symmetry_multiplicity
 _atom_site_fract_x
 _atom_site_fract_y
 _atom_site_fract_z
 _atom_site_occupancy
  Mo  Mo0  1  0.69267046  0.67974514  0.55573833  1
  Mo  Mo1  1  0.02524843  0.34652776  0.36999857  1
  W  W2  1  0.69244528  0.67887050  0.17710711  1
  W  W3  1  0.02589111  0.34689361  0.75025201  1
  Se  Se4  1  0.69086289  0.67905921  0.69791764  1
  Se  Se5  1  0.69209713  0.67868620  0.32082939  1
  Se  Se6  1  0.02629484  0.34612748  0.22350293  1
  Se  Se7  1  0.02566112  0.34648144  0.52174622  1
  S  S8  1  0.02508093  0.34524041  0.13475516  1
  S  S9  1  0.69198900  0.67976898  0.02813136  1
  S  S10  1  0.69225252  0.67938191  0.79027575  1
  S  S11  1  0.69217169  0.67919999  0.41240177  1
