# generated using pymatgen
data_MoW(SeS)2
_symmetry_space_group_name_H-M   'P 1'
_cell_length_a   3.23971725
_cell_length_b   3.24473310
_cell_length_c   36.54720688
_cell_angle_alpha   89.80010223
_cell_angle_beta   90.16992950
_cell_angle_gamma   119.82652283
_symmetry_Int_Tables_number   1
_chemical_formula_structural   MoW(SeS)2
_chemical_formula_sum   'Mo2 W2 Se4 S4'
_cell_volume   333.29159051
_cell_formula_units_Z   2
loop_
 _symmetry_equiv_pos_site_id
 _symmetry_equiv_pos_as_xyz
  1  'x, y, z'
loop_
 _atom_site_type_symbol
 _atom_site_label
 _atom_site_symmetry_multiplicity
 _atom_site_fract_x
 _atom_site_fract_y
 _atom_site_fract_z
 _atom_site_occupancy
  Mo  Mo0  1  0.01629606  0.72739506  0.11147699  1
  Mo  Mo1  1  0.68351626  0.06106073  0.92258787  1
  W  W2  1  0.68173552  0.06113377  0.54498839  1
  W  W3  1  0.01526187  0.72763455  0.73511374  1
  Se  Se4  1  0.68196499  0.06082798  0.06592391  1
  Se  Se5  1  0.68232381  0.06097649  0.15563135  1
  Se  Se6  1  0.01679973  0.72755122  0.96366262  1
  Se  Se7  1  0.01659563  0.72725654  0.87568033  1
  S  S8  1  0.68186021  0.06070694  0.77333921  1
  S  S9  1  0.68197972  0.06052530  0.68956113  1
  S  S10  1  0.01636668  0.72682810  0.50270027  1
  S  S11  1  0.01681929  0.72733158  0.58647239  1
