# generated using pymatgen
data_Na2PHO4
_symmetry_space_group_name_H-M   'P 1'
_cell_length_a   5.65897560
_cell_length_b   5.66221905
_cell_length_c   6.47415113
_cell_angle_alpha   89.03909302
_cell_angle_beta   78.95106506
_cell_angle_gamma   78.13712311
_symmetry_Int_Tables_number   1
_chemical_formula_structural   Na2PHO4
_chemical_formula_sum   'Na4 P2 H2 O8'
_cell_volume   199.19806555
_cell_formula_units_Z   2
loop_
 _symmetry_equiv_pos_site_id
 _symmetry_equiv_pos_as_xyz
  1  'x, y, z'
loop_
 _atom_site_type_symbol
 _atom_site_label
 _atom_site_symmetry_multiplicity
 _atom_site_fract_x
 _atom_site_fract_y
 _atom_site_fract_z
 _atom_site_occupancy
  Na  Na0  1  0.69614339  0.88352531  0.91314703  1
  Na  Na1  1  0.48856473  0.31139380  0.31694043  1
  Na  Na2  1  0.26615044  0.87965393  0.59374595  1
  Na  Na3  1  0.05456238  0.30779094  0.98755127  1
  P  P4  1  0.63521761  0.34447551  0.71378618  1
  P  P5  1  0.11286765  0.84418362  0.19675286  1
  H  H6  1  0.35643333  0.59174544  0.95070273  1
  H  H7  1  0.85732281  0.60130382  0.45549434  1
  O  O8  1  0.09223331  0.64378977  0.37765726  1
  O  O9  1  0.64590466  0.54552567  0.53648376  1
  O  O10  1  0.33288836  0.97347623  0.21466567  1
  O  O11  1  0.59218943  0.47718757  0.93994498  1
  O  O12  1  0.14288458  0.71548861  0.96934891  1
  O  O13  1  0.89106488  0.17611347  0.70163232  1
  O  O14  1  0.43905142  0.19585770  0.69773537  1
  O  O15  1  0.87604547  0.04471339  0.20637119  1
