# generated using pymatgen
data_Na2SnHg
_symmetry_space_group_name_H-M   'P 1'
_cell_length_a   5.28412914
_cell_length_b   5.31009436
_cell_length_c   5.28406239
_cell_angle_alpha   60.01801682
_cell_angle_beta   60.05475235
_cell_angle_gamma   59.88771820
_symmetry_Int_Tables_number   1
_chemical_formula_structural   Na2SnHg
_chemical_formula_sum   'Na2 Sn1 Hg1'
_cell_volume   104.80858184
_cell_formula_units_Z   1
loop_
 _symmetry_equiv_pos_site_id
 _symmetry_equiv_pos_as_xyz
  1  'x, y, z'
loop_
 _atom_site_type_symbol
 _atom_site_label
 _atom_site_symmetry_multiplicity
 _atom_site_fract_x
 _atom_site_fract_y
 _atom_site_fract_z
 _atom_site_occupancy
  Na  Na0  1  0.31316009  0.95537394  0.10222076  1
  Na  Na1  1  0.81306988  0.45538026  0.60216397  1
  Sn  Sn2  1  0.56292039  0.20443067  0.35221288  1
  Hg  Hg3  1  0.06277215  0.70480305  0.85218275  1
