# generated using pymatgen
data_Na2S
_symmetry_space_group_name_H-M   'P 1'
_cell_length_a   4.67574072
_cell_length_b   4.66280270
_cell_length_c   4.63060141
_cell_angle_alpha   59.60729218
_cell_angle_beta   59.92736053
_cell_angle_gamma   60.50033951
_symmetry_Int_Tables_number   1
_chemical_formula_structural   Na2S
_chemical_formula_sum   'Na2 S1'
_cell_volume   71.39707232
_cell_formula_units_Z   1
loop_
 _symmetry_equiv_pos_site_id
 _symmetry_equiv_pos_as_xyz
  1  'x, y, z'
loop_
 _atom_site_type_symbol
 _atom_site_label
 _atom_site_symmetry_multiplicity
 _atom_site_fract_x
 _atom_site_fract_y
 _atom_site_fract_z
 _atom_site_occupancy
  Na  Na0  1  0.58614999  0.19068123  0.90140015  1
  Na  Na1  1  0.08558752  0.69034284  0.40071172  1
  S  S2  1  0.33479011  0.93950599  0.65099454  1
