# generated using pymatgen
data_Na2ThF6
_symmetry_space_group_name_H-M   'P 1'
_cell_length_a   3.84773374
_cell_length_b   6.13351631
_cell_length_c   6.08804083
_cell_angle_alpha   120.47689819
_cell_angle_beta   90.48058319
_cell_angle_gamma   90.03864288
_symmetry_Int_Tables_number   1
_chemical_formula_structural   Na2ThF6
_chemical_formula_sum   'Na2 Th1 F6'
_cell_volume   123.82068443
_cell_formula_units_Z   1
loop_
 _symmetry_equiv_pos_site_id
 _symmetry_equiv_pos_as_xyz
  1  'x, y, z'
loop_
 _atom_site_type_symbol
 _atom_site_label
 _atom_site_symmetry_multiplicity
 _atom_site_fract_x
 _atom_site_fract_y
 _atom_site_fract_z
 _atom_site_occupancy
  Na  Na0  1  0.76056212  0.66478008  0.64839232  1
  Na  Na1  1  0.07074571  0.99865407  0.31705150  1
  Th  Th2  1  0.39149576  0.33034781  0.98292369  1
  F  F3  1  0.39124134  0.69847387  0.35725275  1
  F  F4  1  0.39125767  0.32934004  0.62032992  1
  F  F5  1  0.89063728  0.57761371  0.98450333  1
  F  F6  1  0.39082870  0.95887923  0.98460287  1
  F  F7  1  0.88998097  0.32807720  0.23810321  1
  F  F8  1  0.89001524  0.07462359  0.72056395  1
