# generated using pymatgen
data_Na2Zr(CuS2)2
_symmetry_space_group_name_H-M   'P 1'
_cell_length_a   3.80117869
_cell_length_b   6.90842247
_cell_length_c   6.97391367
_cell_angle_alpha   108.55707550
_cell_angle_beta   89.68394470
_cell_angle_gamma   105.92661285
_symmetry_Int_Tables_number   1
_chemical_formula_structural   Na2Zr(CuS2)2
_chemical_formula_sum   'Na2 Zr1 Cu2 S4'
_cell_volume   166.27618779
_cell_formula_units_Z   1
loop_
 _symmetry_equiv_pos_site_id
 _symmetry_equiv_pos_as_xyz
  1  'x, y, z'
loop_
 _atom_site_type_symbol
 _atom_site_label
 _atom_site_symmetry_multiplicity
 _atom_site_fract_x
 _atom_site_fract_y
 _atom_site_fract_z
 _atom_site_occupancy
  Na  Na0  1  0.95390379  0.51476783  0.06225773  1
  Na  Na1  1  0.68848705  0.97877461  0.93177658  1
  Zr  Zr2  1  0.81217521  0.23609748  0.48998025  1
  Cu  Cu3  1  0.48867154  0.59270489  0.48431611  1
  Cu  Cu4  1  0.14577267  0.89555109  0.49623072  1
  S  S5  1  0.30485183  0.21314600  0.74914402  1
  S  S6  1  0.33538669  0.27045912  0.24384114  1
  S  S7  1  0.02185138  0.65262586  0.68757665  1
  S  S8  1  0.61916041  0.83694404  0.29973063  1
