# generated using pymatgen
data_Na3UF7
_symmetry_space_group_name_H-M   'P 1'
_cell_length_a   3.75627208
_cell_length_b   6.56006908
_cell_length_c   6.65877199
_cell_angle_alpha   98.36898804
_cell_angle_beta   89.86803436
_cell_angle_gamma   106.69421387
_symmetry_Int_Tables_number   1
_chemical_formula_structural   Na3UF7
_chemical_formula_sum   'Na3 U1 F7'
_cell_volume   155.35690476
_cell_formula_units_Z   1
loop_
 _symmetry_equiv_pos_site_id
 _symmetry_equiv_pos_as_xyz
  1  'x, y, z'
loop_
 _atom_site_type_symbol
 _atom_site_label
 _atom_site_symmetry_multiplicity
 _atom_site_fract_x
 _atom_site_fract_y
 _atom_site_fract_z
 _atom_site_occupancy
  Na  Na0  1  0.67888480  0.96103489  0.96877134  1
  Na  Na1  1  0.35779724  0.31050730  0.31836987  1
  Na  Na2  1  0.41234815  0.43071154  0.86416608  1
  U  U3  1  0.10089219  0.80802101  0.46604234  1
  F  F4  1  0.71039855  0.02453907  0.44827896  1
  F  F5  1  0.85699970  0.31682172  0.06166789  1
  F  F6  1  0.94380867  0.49091649  0.50048989  1
  F  F7  1  0.22799101  0.05491827  0.75352859  1
  F  F8  1  0.16969176  0.94374841  0.17474911  1
  F  F9  1  0.55344027  0.72303838  0.67340738  1
  F  F10  1  0.51733154  0.64143562  0.22196862  1
