# generated using pymatgen
data_Na4PbO4
_symmetry_space_group_name_H-M   'P 1'
_cell_length_a   5.82918262
_cell_length_b   6.31698084
_cell_length_c   8.15209770
_cell_angle_alpha   98.06684875
_cell_angle_beta   90.99179840
_cell_angle_gamma   91.26133728
_symmetry_Int_Tables_number   1
_chemical_formula_structural   Na4PbO4
_chemical_formula_sum   'Na8 Pb2 O8'
_cell_volume   297.07792387
_cell_formula_units_Z   2
loop_
 _symmetry_equiv_pos_site_id
 _symmetry_equiv_pos_as_xyz
  1  'x, y, z'
loop_
 _atom_site_type_symbol
 _atom_site_label
 _atom_site_symmetry_multiplicity
 _atom_site_fract_x
 _atom_site_fract_y
 _atom_site_fract_z
 _atom_site_occupancy
  Na  Na0  1  0.72147250  0.18007609  0.63711625  1
  Na  Na1  1  0.82426536  0.89916903  0.21841939  1
  Na  Na2  1  0.27570140  0.76914138  0.01780204  1
  Na  Na3  1  0.21752571  0.17704661  0.80544245  1
  Na  Na4  1  0.80173790  0.55606687  0.44900253  1
  Na  Na5  1  0.80944753  0.81391019  0.79720485  1
  Na  Na6  1  0.80280066  0.38905650  0.97915685  1
  Na  Na7  1  0.30809218  0.55534977  0.67918378  1
  Pb  Pb8  1  0.25704473  0.29167926  0.17704365  1
  Pb  Pb9  1  0.30544609  0.97341669  0.47385177  1
  O  O10  1  0.00726009  0.53651696  0.20334265  1
  O  O11  1  0.41905949  0.42356399  0.97533923  1
  O  O12  1  0.00704232  0.06120802  0.01595277  1
  O  O13  1  0.42800212  0.97968405  0.22697118  1
  O  O14  1  0.45238280  0.90623587  0.70311201  1
  O  O15  1  0.94597876  0.92491579  0.51434523  1
  O  O16  1  0.44125938  0.32646495  0.45814824  1
  O  O17  1  0.94362122  0.46915901  0.72220618  1
