# generated using pymatgen
data_NaCaYCdF8
_symmetry_space_group_name_H-M   'P 1'
_cell_length_a   5.53417635
_cell_length_b   5.51953077
_cell_length_c   6.70077848
_cell_angle_alpha   114.36415863
_cell_angle_beta   114.50109100
_cell_angle_gamma   89.98923492
_symmetry_Int_Tables_number   1
_chemical_formula_structural   NaCaYCdF8
_chemical_formula_sum   'Na1 Ca1 Y1 Cd1 F8'
_cell_volume   166.01929136
_cell_formula_units_Z   1
loop_
 _symmetry_equiv_pos_site_id
 _symmetry_equiv_pos_as_xyz
  1  'x, y, z'
loop_
 _atom_site_type_symbol
 _atom_site_label
 _atom_site_symmetry_multiplicity
 _atom_site_fract_x
 _atom_site_fract_y
 _atom_site_fract_z
 _atom_site_occupancy
  Na  Na0  1  0.80287558  0.08589424  0.91396248  1
  Ca  Ca1  1  0.30286348  0.58668208  0.91408777  1
  Y  Y2  1  0.05290081  0.83700132  0.41394708  1
  Cd  Cd3  1  0.55234218  0.33698484  0.41318774  1
  F  F4  1  0.41475400  0.70938843  0.65569061  1
  F  F5  1  0.18102168  0.47778821  0.17112646  1
  F  F6  1  0.68143255  0.95441699  0.17177933  1
  F  F7  1  0.41445738  0.20799375  0.65577066  1
  F  F8  1  0.93443525  0.70899439  0.65565556  1
  F  F9  1  0.93493050  0.20470722  0.65557939  1
  F  F10  1  0.68260813  0.47818777  0.17087947  1
  F  F11  1  0.18134539  0.95481741  0.17124018  1
