# generated using pymatgen
data_NaCdAs
_symmetry_space_group_name_H-M   'P 1'
_cell_length_a   4.49238968
_cell_length_b   7.39294767
_cell_length_c   9.23352528
_cell_angle_alpha   91.05924988
_cell_angle_beta   90.44982910
_cell_angle_gamma   90.17773438
_symmetry_Int_Tables_number   1
_chemical_formula_structural   NaCdAs
_chemical_formula_sum   'Na4 Cd4 As4'
_cell_volume   306.60038692
_cell_formula_units_Z   4
loop_
 _symmetry_equiv_pos_site_id
 _symmetry_equiv_pos_as_xyz
  1  'x, y, z'
loop_
 _atom_site_type_symbol
 _atom_site_label
 _atom_site_symmetry_multiplicity
 _atom_site_fract_x
 _atom_site_fract_y
 _atom_site_fract_z
 _atom_site_occupancy
  Na  Na0  1  0.26748329  0.45323610  0.02996241  1
  Na  Na1  1  0.76757866  0.73254418  0.50497818  1
  Na  Na2  1  0.76729661  0.20879534  0.29627874  1
  Na  Na3  1  0.26707312  0.81853652  0.74818760  1
  Cd  Cd4  1  0.26697654  0.35402623  0.63113737  1
  Cd  Cd5  1  0.76720327  0.80687261  0.00430405  1
  Cd  Cd6  1  0.26717395  0.85692459  0.25068414  1
  Cd  Cd7  1  0.76738280  0.16923258  0.84039581  1
  As  As8  1  0.26700974  0.04286776  0.49047029  1
  As  As9  1  0.76752436  0.60664821  0.22505452  1
  As  As10  1  0.26735815  0.04629686  0.01091700  1
  As  As11  1  0.76742089  0.53179300  0.78101492  1
