# generated using pymatgen
data_NaEuHfWO6
_symmetry_space_group_name_H-M   'P 1'
_cell_length_a   5.74897575
_cell_length_b   5.76159048
_cell_length_c   5.75091076
_cell_angle_alpha   59.77657700
_cell_angle_beta   59.88603973
_cell_angle_gamma   59.70514679
_symmetry_Int_Tables_number   1
_chemical_formula_structural   NaEuHfWO6
_chemical_formula_sum   'Na1 Eu1 Hf1 W1 O6'
_cell_volume   134.05081170
_cell_formula_units_Z   1
loop_
 _symmetry_equiv_pos_site_id
 _symmetry_equiv_pos_as_xyz
  1  'x, y, z'
loop_
 _atom_site_type_symbol
 _atom_site_label
 _atom_site_symmetry_multiplicity
 _atom_site_fract_x
 _atom_site_fract_y
 _atom_site_fract_z
 _atom_site_occupancy
  Na  Na0  1  0.37405470  0.35408515  0.05593866  1
  Eu  Eu1  1  0.87339222  0.85399467  0.55518919  1
  Hf  Hf2  1  0.62387979  0.60522175  0.30501387  1
  W  W3  1  0.12356026  0.10449037  0.80599207  1
  O  O4  1  0.36951384  0.85862434  0.55779558  1
  O  O5  1  0.37066945  0.35020155  0.55812687  1
  O  O6  1  0.87694240  0.35037392  0.05083621  1
  O  O7  1  0.87696016  0.35033640  0.55730021  1
  O  O8  1  0.87746352  0.85921538  0.05057598  1
  O  O9  1  0.36850700  0.85939217  0.05256796  1
