# generated using pymatgen
data_NaGaTe2
_symmetry_space_group_name_H-M   'P 1'
_cell_length_a   6.78027201
_cell_length_b   6.76750851
_cell_length_c   6.77049541
_cell_angle_alpha   104.86972809
_cell_angle_beta   104.95858002
_cell_angle_gamma   119.47065735
_symmetry_Int_Tables_number   1
_chemical_formula_structural   NaGaTe2
_chemical_formula_sum   'Na2 Ga2 Te4'
_cell_volume   232.54481398
_cell_formula_units_Z   2
loop_
 _symmetry_equiv_pos_site_id
 _symmetry_equiv_pos_as_xyz
  1  'x, y, z'
loop_
 _atom_site_type_symbol
 _atom_site_label
 _atom_site_symmetry_multiplicity
 _atom_site_fract_x
 _atom_site_fract_y
 _atom_site_fract_z
 _atom_site_occupancy
  Na  Na0  1  0.24051517  0.43872067  0.15107629  1
  Na  Na1  1  0.74020255  0.93828237  0.14989908  1
  Ga  Ga2  1  0.23996581  0.93971592  0.65096569  1
  Ga  Ga3  1  0.74054199  0.43856466  0.64986032  1
  Te  Te4  1  0.31696919  0.02225547  0.30662417  1
  Te  Te5  1  0.66344482  0.36491793  0.00316359  1
  Te  Te6  1  0.16501039  0.51962346  0.65040153  1
  Te  Te7  1  0.81546569  0.86522132  0.65075439  1
