# generated using pymatgen
data_NaIO4
_symmetry_space_group_name_H-M   'P 1'
_cell_length_a   5.05672979
_cell_length_b   5.82525110
_cell_length_c   5.89315557
_cell_angle_alpha   89.90586853
_cell_angle_beta   89.85803986
_cell_angle_gamma   90.02846527
_symmetry_Int_Tables_number   1
_chemical_formula_structural   NaIO4
_chemical_formula_sum   'Na2 I2 O8'
_cell_volume   173.59224954
_cell_formula_units_Z   2
loop_
 _symmetry_equiv_pos_site_id
 _symmetry_equiv_pos_as_xyz
  1  'x, y, z'
loop_
 _atom_site_type_symbol
 _atom_site_label
 _atom_site_symmetry_multiplicity
 _atom_site_fract_x
 _atom_site_fract_y
 _atom_site_fract_z
 _atom_site_occupancy
  Na  Na0  1  0.00032321  0.66690058  0.54408365  1
  Na  Na1  1  0.00056339  0.16686206  0.04373966  1
  I  I2  1  0.49964148  0.16841508  0.54430068  1
  I  I3  1  0.50012267  0.66849476  0.04367874  1
  O  O4  1  0.26649067  0.51424128  0.19266213  1
  O  O5  1  0.26633155  0.31865758  0.69293195  1
  O  O6  1  0.73171043  0.51180178  0.88641709  1
  O  O7  1  0.73119199  0.01472290  0.69314176  1
  O  O8  1  0.73163152  0.31930047  0.38497883  1
  O  O9  1  0.26758385  0.81855142  0.88510931  1
  O  O10  1  0.73149633  0.81848860  0.19330484  1
  O  O11  1  0.26686916  0.01231098  0.38466409  1
