# generated using pymatgen
data_NaLaTl2
_symmetry_space_group_name_H-M   'P 1'
_cell_length_a   5.52110624
_cell_length_b   5.52011538
_cell_length_c   5.51665449
_cell_angle_alpha   59.80533218
_cell_angle_beta   59.86996460
_cell_angle_gamma   60.15529633
_symmetry_Int_Tables_number   1
_chemical_formula_structural   NaLaTl2
_chemical_formula_sum   'Na1 La1 Tl2'
_cell_volume   118.73240379
_cell_formula_units_Z   1
loop_
 _symmetry_equiv_pos_site_id
 _symmetry_equiv_pos_as_xyz
  1  'x, y, z'
loop_
 _atom_site_type_symbol
 _atom_site_label
 _atom_site_symmetry_multiplicity
 _atom_site_fract_x
 _atom_site_fract_y
 _atom_site_fract_z
 _atom_site_occupancy
  Na  Na0  1  0.58363366  0.47548842  0.40178159  1
  La  La1  1  0.08303928  0.97566283  0.90203249  1
  Tl  Tl2  1  0.33282548  0.22561683  0.15208982  1
  Tl  Tl3  1  0.83325893  0.72545475  0.65237373  1
