# generated using pymatgen
data_NaLi2Sn
_symmetry_space_group_name_H-M   'P 1'
_cell_length_a   4.88386869
_cell_length_b   4.89663219
_cell_length_c   4.87870216
_cell_angle_alpha   59.89323807
_cell_angle_beta   60.02131271
_cell_angle_gamma   59.91609955
_symmetry_Int_Tables_number   1
_chemical_formula_structural   NaLi2Sn
_chemical_formula_sum   'Na1 Li2 Sn1'
_cell_volume   82.39353648
_cell_formula_units_Z   1
loop_
 _symmetry_equiv_pos_site_id
 _symmetry_equiv_pos_as_xyz
  1  'x, y, z'
loop_
 _atom_site_type_symbol
 _atom_site_label
 _atom_site_symmetry_multiplicity
 _atom_site_fract_x
 _atom_site_fract_y
 _atom_site_fract_z
 _atom_site_occupancy
  Na  Na0  1  0.31452155  0.60191882  0.29562482  1
  Li  Li1  1  0.56454593  0.85181028  0.54613978  1
  Li  Li2  1  0.06414346  0.35164168  0.04595738  1
  Sn  Sn3  1  0.81412286  0.10194417  0.79613239  1
