# generated using pymatgen
data_NaNdO2
_symmetry_space_group_name_H-M   'P 1'
_cell_length_a   5.11795425
_cell_length_b   5.13238478
_cell_length_c   6.08714056
_cell_angle_alpha   114.94956970
_cell_angle_beta   114.90559387
_cell_angle_gamma   89.72997284
_symmetry_Int_Tables_number   1
_chemical_formula_structural   NaNdO2
_chemical_formula_sum   'Na2 Nd2 O4'
_cell_volume   128.54964228
_cell_formula_units_Z   2
loop_
 _symmetry_equiv_pos_site_id
 _symmetry_equiv_pos_as_xyz
  1  'x, y, z'
loop_
 _atom_site_type_symbol
 _atom_site_label
 _atom_site_symmetry_multiplicity
 _atom_site_fract_x
 _atom_site_fract_y
 _atom_site_fract_z
 _atom_site_occupancy
  Na  Na0  1  0.59523511  0.90732974  0.02468367  1
  Na  Na1  1  0.09595207  0.40623468  0.02511599  1
  Nd  Nd2  1  0.84577113  0.65732694  0.52442664  1
  Nd  Nd3  1  0.34537557  0.15746865  0.52464777  1
  O  O4  1  0.09618302  0.90841961  0.02580743  1
  O  O5  1  0.84534132  0.15793183  0.52485991  1
  O  O6  1  0.34511802  0.65720123  0.52440631  1
  O  O7  1  0.59587920  0.40865225  0.02593041  1
