# generated using pymatgen
data_NaNiO2
_symmetry_space_group_name_H-M   'P 1'
_cell_length_a   3.05817628
_cell_length_b   5.40424967
_cell_length_c   5.26213837
_cell_angle_alpha   85.22949982
_cell_angle_beta   88.60824585
_cell_angle_gamma   107.02172852
_symmetry_Int_Tables_number   1
_chemical_formula_structural   NaNiO2
_chemical_formula_sum   'Na2 Ni2 O4'
_cell_volume   82.76231562
_cell_formula_units_Z   2
loop_
 _symmetry_equiv_pos_site_id
 _symmetry_equiv_pos_as_xyz
  1  'x, y, z'
loop_
 _atom_site_type_symbol
 _atom_site_label
 _atom_site_symmetry_multiplicity
 _atom_site_fract_x
 _atom_site_fract_y
 _atom_site_fract_z
 _atom_site_occupancy
  Na  Na0  1  0.79510480  0.33973467  0.46963596  1
  Na  Na1  1  0.29561311  0.34032384  0.97003531  1
  Ni  Ni2  1  0.54260081  0.83903110  0.21984163  1
  Ni  Ni3  1  0.04318503  0.83907878  0.71997076  1
  O  O4  1  0.94930494  0.65391940  0.07570397  1
  O  O5  1  0.14177020  0.03984172  0.35825947  1
  O  O6  1  0.64191884  0.03805104  0.86133045  1
  O  O7  1  0.45012233  0.65350813  0.57457620  1
