# generated using pymatgen
data_NaPPdS4
_symmetry_space_group_name_H-M   'P 1'
_cell_length_a   6.02629757
_cell_length_b   6.05287170
_cell_length_c   8.49973488
_cell_angle_alpha   89.81090546
_cell_angle_beta   89.83113861
_cell_angle_gamma   90.98818970
_symmetry_Int_Tables_number   1
_chemical_formula_structural   NaPPdS4
_chemical_formula_sum   'Na2 P2 Pd2 S8'
_cell_volume   309.99058139
_cell_formula_units_Z   2
loop_
 _symmetry_equiv_pos_site_id
 _symmetry_equiv_pos_as_xyz
  1  'x, y, z'
loop_
 _atom_site_type_symbol
 _atom_site_label
 _atom_site_symmetry_multiplicity
 _atom_site_fract_x
 _atom_site_fract_y
 _atom_site_fract_z
 _atom_site_occupancy
  Na  Na0  1  0.51813519  0.46106455  0.73580050  1
  Na  Na1  1  0.01757370  0.45467210  0.12363733  1
  P  P2  1  0.01588619  0.44694570  0.54721981  1
  P  P3  1  0.51910704  0.94457030  0.07580180  1
  Pd  Pd4  1  0.01722062  0.95343500  0.44487986  1
  Pd  Pd5  1  0.51779038  0.95259124  0.45094523  1
  S  S6  1  0.32267368  0.14871486  0.95536476  1
  S  S7  1  0.23975439  0.27419421  0.43289632  1
  S  S8  1  0.72906077  0.10617819  0.23324354  1
  S  S9  1  0.80596608  0.16588640  0.62716252  1
  S  S10  1  0.71421963  0.74443102  0.95445585  1
  S  S11  1  0.29312727  0.79817444  0.23798391  1
  S  S12  1  0.21996415  0.74728560  0.62765038  1
  S  S13  1  0.79311109  0.63570774  0.43432155  1
