# generated using pymatgen
data_NaSrHfSbO6
_symmetry_space_group_name_H-M   'P 1'
_cell_length_a   5.78897333
_cell_length_b   5.81029654
_cell_length_c   5.79550886
_cell_angle_alpha   60.14715958
_cell_angle_beta   59.87149048
_cell_angle_gamma   59.76804352
_symmetry_Int_Tables_number   1
_chemical_formula_structural   NaSrHfSbO6
_chemical_formula_sum   'Na1 Sr1 Hf1 Sb1 O6'
_cell_volume   137.61482917
_cell_formula_units_Z   1
loop_
 _symmetry_equiv_pos_site_id
 _symmetry_equiv_pos_as_xyz
  1  'x, y, z'
loop_
 _atom_site_type_symbol
 _atom_site_label
 _atom_site_symmetry_multiplicity
 _atom_site_fract_x
 _atom_site_fract_y
 _atom_site_fract_z
 _atom_site_occupancy
  Na  Na0  1  0.08628850  0.42271325  0.64534432  1
  Sr  Sr1  1  0.58607250  0.92282224  0.14534162  1
  Hf  Hf2  1  0.83664173  0.17249602  0.39531237  1
  Sb  Sb3  1  0.33618134  0.67272437  0.89552921  1
  O  O4  1  0.58197683  0.42704412  0.64882565  1
  O  O5  1  0.09017687  0.91897380  0.64807200  1
  O  O6  1  0.58293748  0.91848415  0.64877456  1
  O  O7  1  0.58238935  0.42653850  0.14180513  1
  O  O8  1  0.08991272  0.91966438  0.14058051  1
  O  O9  1  0.08965439  0.42685705  0.14036626  1
