# generated using pymatgen
data_Nb2ReRu
_symmetry_space_group_name_H-M   'P 1'
_cell_length_a   4.52797604
_cell_length_b   4.51742887
_cell_length_c   4.52426672
_cell_angle_alpha   59.70539474
_cell_angle_beta   59.88218307
_cell_angle_gamma   59.73733139
_symmetry_Int_Tables_number   1
_chemical_formula_structural   Nb2ReRu
_chemical_formula_sum   'Nb2 Re1 Ru1'
_cell_volume   65.10310549
_cell_formula_units_Z   1
loop_
 _symmetry_equiv_pos_site_id
 _symmetry_equiv_pos_as_xyz
  1  'x, y, z'
loop_
 _atom_site_type_symbol
 _atom_site_label
 _atom_site_symmetry_multiplicity
 _atom_site_fract_x
 _atom_site_fract_y
 _atom_site_fract_z
 _atom_site_occupancy
  Nb  Nb0  1  0.22978669  0.99012178  0.37501836  1
  Nb  Nb1  1  0.72986120  0.49012133  0.87521577  1
  Re  Re2  1  0.47978246  0.24038117  0.62484318  1
  Ru  Ru3  1  0.97986865  0.74021780  0.12466915  1
