# generated using pymatgen
data_Nb4Pb3O13
_symmetry_space_group_name_H-M   'P 1'
_cell_length_a   3.88909316
_cell_length_b   7.12349463
_cell_length_c   10.68548489
_cell_angle_alpha   90.67924500
_cell_angle_beta   89.79896545
_cell_angle_gamma   91.09565735
_symmetry_Int_Tables_number   1
_chemical_formula_structural   Nb4Pb3O13
_chemical_formula_sum   'Nb4 Pb3 O13'
_cell_volume   295.95345249
_cell_formula_units_Z   1
loop_
 _symmetry_equiv_pos_site_id
 _symmetry_equiv_pos_as_xyz
  1  'x, y, z'
loop_
 _atom_site_type_symbol
 _atom_site_label
 _atom_site_symmetry_multiplicity
 _atom_site_fract_x
 _atom_site_fract_y
 _atom_site_fract_z
 _atom_site_occupancy
  Nb  Nb0  1  0.93190956  0.37301901  0.80077988  1
  Nb  Nb1  1  0.92953730  0.64360690  0.57123154  1
  Nb  Nb2  1  0.93671727  0.87303829  0.31713510  1
  Nb  Nb3  1  0.92811227  0.14259002  0.06124477  1
  Pb  Pb4  1  0.40361831  0.03757481  0.68629378  1
  Pb  Pb5  1  0.43178833  0.67579585  0.02794217  1
  Pb  Pb6  1  0.43174708  0.36238685  0.37827557  1
  O  O7  1  0.98076773  0.84992301  0.11109519  1
  O  O8  1  0.49207804  0.44360125  0.18348731  1
  O  O9  1  0.47443995  0.64386696  0.55893421  1
  O  O10  1  0.97593200  0.59321952  0.37702233  1
  O  O11  1  0.47432485  0.34892738  0.78826708  1
  O  O12  1  0.98164845  0.35002923  0.59845757  1
  O  O13  1  0.97932428  0.40917256  0.98700881  1
  O  O14  1  0.47976264  0.86135709  0.30318522  1
  O  O15  1  0.98319089  0.14978220  0.26073763  1
  O  O16  1  0.48006052  0.09228174  0.04358974  1
  O  O17  1  0.97936714  0.64792389  0.75930363  1
  O  O18  1  0.97866815  0.91130513  0.51533782  1
  O  O19  1  0.97985721  0.09818640  0.84460306  1
