# generated using pymatgen
data_NbAl2Ni9
_symmetry_space_group_name_H-M   'P 1'
_cell_length_a   3.56498528
_cell_length_b   3.59509921
_cell_length_c   10.70296669
_cell_angle_alpha   89.84696198
_cell_angle_beta   89.97458649
_cell_angle_gamma   90.24459076
_symmetry_Int_Tables_number   1
_chemical_formula_structural   NbAl2Ni9
_chemical_formula_sum   'Nb1 Al2 Ni9'
_cell_volume   137.17255961
_cell_formula_units_Z   1
loop_
 _symmetry_equiv_pos_site_id
 _symmetry_equiv_pos_as_xyz
  1  'x, y, z'
loop_
 _atom_site_type_symbol
 _atom_site_label
 _atom_site_symmetry_multiplicity
 _atom_site_fract_x
 _atom_site_fract_y
 _atom_site_fract_z
 _atom_site_occupancy
  Nb  Nb0  1  0.77484560  0.26572210  0.11130143  1
  Al  Al1  1  0.77489907  0.26526797  0.77375746  1
  Al  Al2  1  0.77509457  0.26507741  0.44907299  1
  Ni  Ni3  1  0.77459127  0.76532829  0.28242308  1
  Ni  Ni4  1  0.27500686  0.26532617  0.28453359  1
  Ni  Ni5  1  0.27482235  0.26578754  0.61018407  1
  Ni  Ni6  1  0.27488533  0.76524246  0.77286118  1
  Ni  Ni7  1  0.27489954  0.26570407  0.93665522  1
  Ni  Ni8  1  0.27485913  0.76578301  0.44940785  1
  Ni  Ni9  1  0.27499026  0.76527935  0.11139379  1
  Ni  Ni10  1  0.77458465  0.76559424  0.61042279  1
  Ni  Ni11  1  0.77489161  0.76523328  0.93823099  1
