# generated using pymatgen
data_NbAlZn
_symmetry_space_group_name_H-M   'P 1'
_cell_length_a   5.28508377
_cell_length_b   5.29253960
_cell_length_c   8.68831730
_cell_angle_alpha   72.62567139
_cell_angle_beta   72.47904205
_cell_angle_gamma   60.15015411
_symmetry_Int_Tables_number   1
_chemical_formula_structural   NbAlZn
_chemical_formula_sum   'Nb4 Al4 Zn4'
_cell_volume   197.72665147
_cell_formula_units_Z   4
loop_
 _symmetry_equiv_pos_site_id
 _symmetry_equiv_pos_as_xyz
  1  'x, y, z'
loop_
 _atom_site_type_symbol
 _atom_site_label
 _atom_site_symmetry_multiplicity
 _atom_site_fract_x
 _atom_site_fract_y
 _atom_site_fract_z
 _atom_site_occupancy
  Nb  Nb0  1  0.46253332  0.40428630  0.38085577  1
  Nb  Nb1  1  0.31513101  0.25856519  0.80154032  1
  Nb  Nb2  1  0.79946375  0.73679072  0.36520419  1
  Nb  Nb3  1  0.60314882  0.54512310  0.95891482  1
  Al  Al4  1  0.86597478  0.80416614  0.64092338  1
  Al  Al5  1  0.05767202  0.00336512  0.11356930  1
  Al  Al6  1  0.05687360  0.48535192  0.11340594  1
  Al  Al7  1  0.37714282  0.80499804  0.64066881  1
  Zn  Zn8  1  0.13131157  0.07245357  0.38307938  1
  Zn  Zn9  1  0.54542017  0.00214684  0.11308385  1
  Zn  Zn10  1  0.96041262  0.90195447  0.87728357  1
  Zn  Zn11  1  0.86534947  0.31782219  0.64070404  1
