# generated using pymatgen
data_NbFeO4
_symmetry_space_group_name_H-M   'P 1'
_cell_length_a   5.66945410
_cell_length_b   5.66323757
_cell_length_c   5.67891932
_cell_angle_alpha   106.89424133
_cell_angle_beta   106.94731903
_cell_angle_gamma   114.76325226
_symmetry_Int_Tables_number   1
_chemical_formula_structural   NbFeO4
_chemical_formula_sum   'Nb2 Fe2 O8'
_cell_volume   139.36032110
_cell_formula_units_Z   2
loop_
 _symmetry_equiv_pos_site_id
 _symmetry_equiv_pos_as_xyz
  1  'x, y, z'
loop_
 _atom_site_type_symbol
 _atom_site_label
 _atom_site_symmetry_multiplicity
 _atom_site_fract_x
 _atom_site_fract_y
 _atom_site_fract_z
 _atom_site_occupancy
  Nb  Nb0  1  0.25241753  0.19728048  0.99782616  1
  Nb  Nb1  1  0.75310808  0.69644231  0.99826831  1
  Fe  Fe2  1  0.50229847  0.94803768  0.49839851  1
  Fe  Fe3  1  0.00186670  0.44826099  0.49901703  1
  O  O4  1  0.00808993  0.14537869  0.19018987  1
  O  O5  1  0.50539505  0.64457464  0.19060865  1
  O  O6  1  0.45464474  0.69614017  0.69144851  1
  O  O7  1  0.06062214  0.71147084  0.30693999  1
  O  O8  1  0.56275159  0.20865789  0.30744335  1
  O  O9  1  0.95508122  0.19589728  0.69104320  1
  O  O10  1  0.51361340  0.25649008  0.80747801  1
  O  O11  1  0.01374099  0.75633758  0.80700749  1
