# generated using pymatgen
data_NbGaOs2
_symmetry_space_group_name_H-M   'P 1'
_cell_length_a   4.41153193
_cell_length_b   4.40184355
_cell_length_c   4.41085482
_cell_angle_alpha   59.65126801
_cell_angle_beta   59.87370300
_cell_angle_gamma   59.81900787
_symmetry_Int_Tables_number   1
_chemical_formula_structural   NbGaOs2
_chemical_formula_sum   'Nb1 Ga1 Os2'
_cell_volume   60.26521739
_cell_formula_units_Z   1
loop_
 _symmetry_equiv_pos_site_id
 _symmetry_equiv_pos_as_xyz
  1  'x, y, z'
loop_
 _atom_site_type_symbol
 _atom_site_label
 _atom_site_symmetry_multiplicity
 _atom_site_fract_x
 _atom_site_fract_y
 _atom_site_fract_z
 _atom_site_occupancy
  Nb  Nb0  1  0.86987859  0.74049914  0.29742414  1
  Ga  Ga1  1  0.37024546  0.24059547  0.79716033  1
  Os  Os2  1  0.62016839  0.49075401  0.04748248  1
  Os  Os3  1  0.11995035  0.99059308  0.54841244  1
