# generated using pymatgen
data_NbInS2
_symmetry_space_group_name_H-M   'P 1'
_cell_length_a   3.39047265
_cell_length_b   3.36098957
_cell_length_c   7.87760925
_cell_angle_alpha   89.84815216
_cell_angle_beta   90.30388641
_cell_angle_gamma   120.34511566
_symmetry_Int_Tables_number   1
_chemical_formula_structural   NbInS2
_chemical_formula_sum   'Nb1 In1 S2'
_cell_volume   77.46856843
_cell_formula_units_Z   1
loop_
 _symmetry_equiv_pos_site_id
 _symmetry_equiv_pos_as_xyz
  1  'x, y, z'
loop_
 _atom_site_type_symbol
 _atom_site_label
 _atom_site_symmetry_multiplicity
 _atom_site_fract_x
 _atom_site_fract_y
 _atom_site_fract_z
 _atom_site_occupancy
  Nb  Nb0  1  0.83176887  0.31398711  0.67479813  1
  In  In1  1  0.83099335  0.31392983  0.17526169  1
  S  S2  1  0.49741238  0.64655095  0.47838628  1
  S  S3  1  0.49667245  0.64679766  0.86497420  1
