# generated using pymatgen
data_NbOF3
_symmetry_space_group_name_H-M   'P 1'
_cell_length_a   5.71319532
_cell_length_b   5.92891312
_cell_length_c   9.58684731
_cell_angle_alpha   90.17923737
_cell_angle_beta   90.36817169
_cell_angle_gamma   90.17373657
_symmetry_Int_Tables_number   1
_chemical_formula_structural   NbOF3
_chemical_formula_sum   'Nb4 O4 F12'
_cell_volume   324.72584367
_cell_formula_units_Z   4
loop_
 _symmetry_equiv_pos_site_id
 _symmetry_equiv_pos_as_xyz
  1  'x, y, z'
loop_
 _atom_site_type_symbol
 _atom_site_label
 _atom_site_symmetry_multiplicity
 _atom_site_fract_x
 _atom_site_fract_y
 _atom_site_fract_z
 _atom_site_occupancy
  Nb  Nb0  1  0.74735808  0.29979575  0.99296510  1
  Nb  Nb1  1  0.75536960  0.79957807  0.51175767  1
  Nb  Nb2  1  0.24395268  0.29738623  0.47856727  1
  Nb  Nb3  1  0.28795862  0.81752026  0.97703761  1
  O  O4  1  0.75567687  0.80341113  0.68999267  1
  O  O5  1  0.46790266  0.10310197  0.99127346  1
  O  O6  1  0.25522575  0.80367810  0.80054003  1
  O  O7  1  0.25237843  0.30208987  0.30140826  1
  F  F8  1  0.75476789  0.80321401  0.31149498  1
  F  F9  1  0.93740612  0.09671157  0.49060565  1
  F  F10  1  0.25389594  0.30409786  0.67081016  1
  F  F11  1  0.06119163  0.50140280  0.99067920  1
  F  F12  1  0.25581190  0.79841161  0.17037374  1
  F  F13  1  0.96781099  0.01225326  0.99052668  1
  F  F14  1  0.75393510  0.30901688  0.18108274  1
  F  F15  1  0.56061900  0.49857122  0.48982382  1
  F  F16  1  0.44471413  0.99513119  0.48927191  1
  F  F17  1  0.04806686  0.59314537  0.48983401  1
  F  F18  1  0.56108761  0.60593283  0.99075854  1
  F  F19  1  0.75273120  0.30497733  0.80664080  1
