# generated using pymatgen
data_NbRh3
_symmetry_space_group_name_H-M   'P 1'
_cell_length_a   4.49281359
_cell_length_b   5.52061987
_cell_length_c   5.57167530
_cell_angle_alpha   60.30100632
_cell_angle_beta   90.20281982
_cell_angle_gamma   90.03292084
_symmetry_Int_Tables_number   1
_chemical_formula_structural   NbRh3
_chemical_formula_sum   'Nb2 Rh6'
_cell_volume   120.04079255
_cell_formula_units_Z   2
loop_
 _symmetry_equiv_pos_site_id
 _symmetry_equiv_pos_as_xyz
  1  'x, y, z'
loop_
 _atom_site_type_symbol
 _atom_site_label
 _atom_site_symmetry_multiplicity
 _atom_site_fract_x
 _atom_site_fract_y
 _atom_site_fract_z
 _atom_site_occupancy
  Nb  Nb0  1  0.10888363  0.91660458  0.17561685  1
  Nb  Nb1  1  0.10866624  0.41589043  0.67568028  1
  Rh  Rh2  1  0.10839368  0.91571271  0.67563862  1
  Rh  Rh3  1  0.60860026  0.74785173  0.00846240  1
  Rh  Rh4  1  0.60837960  0.24734905  0.00886762  1
  Rh  Rh5  1  0.60851139  0.24770650  0.50892985  1
  Rh  Rh6  1  0.10852724  0.41614276  0.17556603  1
  Rh  Rh7  1  0.60865927  0.74721986  0.50884241  1
