# generated using pymatgen
data_NbVP
_symmetry_space_group_name_H-M   'P 1'
_cell_length_a   3.36618495
_cell_length_b   7.18568230
_cell_length_c   7.18790102
_cell_angle_alpha   89.97653961
_cell_angle_beta   89.90707397
_cell_angle_gamma   90.18397522
_symmetry_Int_Tables_number   1
_chemical_formula_structural   NbVP
_chemical_formula_sum   'Nb4 V4 P4'
_cell_volume   173.86222224
_cell_formula_units_Z   4
loop_
 _symmetry_equiv_pos_site_id
 _symmetry_equiv_pos_as_xyz
  1  'x, y, z'
loop_
 _atom_site_type_symbol
 _atom_site_label
 _atom_site_symmetry_multiplicity
 _atom_site_fract_x
 _atom_site_fract_y
 _atom_site_fract_z
 _atom_site_occupancy
  Nb  Nb0  1  0.48991120  0.39779148  0.06555056  1
  Nb  Nb1  1  0.98975152  0.06154163  0.12707959  1
  Nb  Nb2  1  0.48950884  0.56124002  0.56481767  1
  Nb  Nb3  1  0.98966193  0.89907748  0.62755430  1
  V  V4  1  0.48930106  0.78569698  0.95566696  1
  V  V5  1  0.98953801  0.67037219  0.22874394  1
  V  V6  1  0.98957515  0.28647053  0.72911024  1
  V  V7  1  0.48935977  0.17114006  0.45274055  1
  P  P8  1  0.48969617  0.09232286  0.84929717  1
  P  P9  1  0.98986906  0.59415656  0.85037225  1
  P  P10  1  0.48936757  0.86545348  0.34880769  1
  P  P11  1  0.98969394  0.36627254  0.35050979  1
