# generated using pymatgen
data_NClOF4
_symmetry_space_group_name_H-M   'P 1'
_cell_length_a   4.55456209
_cell_length_b   6.73084879
_cell_length_c   8.04063797
_cell_angle_alpha   90.35845184
_cell_angle_beta   90.18668365
_cell_angle_gamma   90.04167938
_symmetry_Int_Tables_number   1
_chemical_formula_structural   NClOF4
_chemical_formula_sum   'N2 Cl2 O2 F8'
_cell_volume   246.48814919
_cell_formula_units_Z   2
loop_
 _symmetry_equiv_pos_site_id
 _symmetry_equiv_pos_as_xyz
  1  'x, y, z'
loop_
 _atom_site_type_symbol
 _atom_site_label
 _atom_site_symmetry_multiplicity
 _atom_site_fract_x
 _atom_site_fract_y
 _atom_site_fract_z
 _atom_site_occupancy
  N  N0  1  0.97320777  0.51692444  0.20237654  1
  N  N1  1  0.45828858  0.01638034  0.69693029  1
  Cl  Cl2  1  0.40595713  0.95244569  0.05871175  1
  Cl  Cl3  1  0.90776420  0.45285001  0.55881011  1
  O  O4  1  0.46504575  0.10248668  0.55625218  1
  O  O5  1  0.15950850  0.39990360  0.23554012  1
  F  F6  1  0.96678644  0.61213070  0.05474513  1
  F  F7  1  0.23555984  0.88968742  0.24698153  1
  F  F8  1  0.73470438  0.38936073  0.74570823  1
  F  F9  1  0.70694727  0.07986827  0.13497518  1
  F  F10  1  0.74434561  0.61434078  0.32514089  1
  F  F11  1  0.20768237  0.58327442  0.63556141  1
  F  F12  1  0.24391747  0.11482694  0.82533395  1
  F  F13  1  0.66248864  0.89166766  0.74712622  1
