# generated using pymatgen
data_Nd2Bi
_symmetry_space_group_name_H-M   'P 1'
_cell_length_a   4.70855761
_cell_length_b   4.74259758
_cell_length_c   9.72067261
_cell_angle_alpha   104.21746063
_cell_angle_beta   103.96212769
_cell_angle_gamma   89.92768097
_symmetry_Int_Tables_number   1
_chemical_formula_structural   Nd2Bi
_chemical_formula_sum   'Nd4 Bi2'
_cell_volume   203.81633024
_cell_formula_units_Z   2
loop_
 _symmetry_equiv_pos_site_id
 _symmetry_equiv_pos_as_xyz
  1  'x, y, z'
loop_
 _atom_site_type_symbol
 _atom_site_label
 _atom_site_symmetry_multiplicity
 _atom_site_fract_x
 _atom_site_fract_y
 _atom_site_fract_z
 _atom_site_occupancy
  Nd  Nd0  1  0.47236803  0.81601423  0.12948917  1
  Nd  Nd1  1  0.28662035  0.62886673  0.75301611  1
  Nd  Nd2  1  0.61529475  0.46266189  0.41791880  1
  Nd  Nd3  1  0.78871095  0.13134214  0.75529075  1
  Bi  Bi4  1  0.15543562  0.99793696  0.48850143  1
  Bi  Bi5  1  0.96940845  0.31210026  0.12546647  1
