# generated using pymatgen
data_Nd3Dy
_symmetry_space_group_name_H-M   'P 1'
_cell_length_a   5.17681599
_cell_length_b   5.16828156
_cell_length_c   5.17994547
_cell_angle_alpha   89.86024475
_cell_angle_beta   89.68632507
_cell_angle_gamma   89.81800079
_symmetry_Int_Tables_number   1
_chemical_formula_structural   Nd3Dy
_chemical_formula_sum   'Nd3 Dy1'
_cell_volume   138.58751504
_cell_formula_units_Z   1
loop_
 _symmetry_equiv_pos_site_id
 _symmetry_equiv_pos_as_xyz
  1  'x, y, z'
loop_
 _atom_site_type_symbol
 _atom_site_label
 _atom_site_symmetry_multiplicity
 _atom_site_fract_x
 _atom_site_fract_y
 _atom_site_fract_z
 _atom_site_occupancy
  Nd  Nd0  1  0.61490905  0.30929247  0.54960930  1
  Nd  Nd1  1  0.61484331  0.80945361  0.04961823  1
  Nd  Nd2  1  0.11477356  0.80894291  0.54981506  1
  Dy  Dy3  1  0.11483592  0.30873844  0.04927211  1
