# generated using pymatgen
data_Nd
_symmetry_space_group_name_H-M   'P 1'
_cell_length_a   5.19932985
_cell_length_b   5.20445108
_cell_length_c   5.20636129
_cell_angle_alpha   89.91432953
_cell_angle_beta   89.66211700
_cell_angle_gamma   89.75328064
_symmetry_Int_Tables_number   1
_chemical_formula_structural   Nd
_chemical_formula_sum   Nd4
_cell_volume   140.87844747
_cell_formula_units_Z   4
loop_
 _symmetry_equiv_pos_site_id
 _symmetry_equiv_pos_as_xyz
  1  'x, y, z'
loop_
 _atom_site_type_symbol
 _atom_site_label
 _atom_site_symmetry_multiplicity
 _atom_site_fract_x
 _atom_site_fract_y
 _atom_site_fract_z
 _atom_site_occupancy
  Nd  Nd0  1  0.32735181  0.97479767  0.62435621  1
  Nd  Nd1  1  0.32700583  0.47476175  0.12419349  1
  Nd  Nd2  1  0.82698792  0.47458690  0.62417763  1
  Nd  Nd3  1  0.82736528  0.97503906  0.12433162  1
