# generated using pymatgen
data_NdAlPt
_symmetry_space_group_name_H-M   'P 1'
_cell_length_a   4.61307764
_cell_length_b   7.50490522
_cell_length_c   7.54566288
_cell_angle_alpha   89.94403839
_cell_angle_beta   89.81072998
_cell_angle_gamma   90.02320099
_symmetry_Int_Tables_number   1
_chemical_formula_structural   NdAlPt
_chemical_formula_sum   'Nd4 Al4 Pt4'
_cell_volume   261.23463825
_cell_formula_units_Z   4
loop_
 _symmetry_equiv_pos_site_id
 _symmetry_equiv_pos_as_xyz
  1  'x, y, z'
loop_
 _atom_site_type_symbol
 _atom_site_label
 _atom_site_symmetry_multiplicity
 _atom_site_fract_x
 _atom_site_fract_y
 _atom_site_fract_z
 _atom_site_occupancy
  Nd  Nd0  1  0.58424819  0.65686327  0.76917094  1
  Nd  Nd1  1  0.08469134  0.15733407  0.24681757  1
  Nd  Nd2  1  0.08494598  0.03236872  0.74627316  1
  Nd  Nd3  1  0.58483702  0.53296709  0.26890820  1
  Al  Al4  1  0.08480658  0.76197457  0.09137884  1
  Al  Al5  1  0.58465499  0.26275066  0.92756963  1
  Al  Al6  1  0.58477211  0.93043041  0.42760381  1
  Al  Al7  1  0.08465004  0.42986587  0.59142220  1
  Pt  Pt8  1  0.08511270  0.43668520  0.95214045  1
  Pt  Pt9  1  0.08424757  0.75098878  0.45191428  1
  Pt  Pt10  1  0.58491653  0.25216454  0.56195873  1
  Pt  Pt11  1  0.58476353  0.93477058  0.06223935  1
