# generated using pymatgen
data_NdAsRuO
_symmetry_space_group_name_H-M   'P 1'
_cell_length_a   4.19013214
_cell_length_b   4.16058350
_cell_length_c   8.27133560
_cell_angle_alpha   89.87527466
_cell_angle_beta   89.97031403
_cell_angle_gamma   90.17029572
_symmetry_Int_Tables_number   1
_chemical_formula_structural   NdAsRuO
_chemical_formula_sum   'Nd2 As2 Ru2 O2'
_cell_volume   144.19645926
_cell_formula_units_Z   2
loop_
 _symmetry_equiv_pos_site_id
 _symmetry_equiv_pos_as_xyz
  1  'x, y, z'
loop_
 _atom_site_type_symbol
 _atom_site_label
 _atom_site_symmetry_multiplicity
 _atom_site_fract_x
 _atom_site_fract_y
 _atom_site_fract_z
 _atom_site_occupancy
  Nd  Nd0  1  0.93891472  0.32894185  0.24735723  1
  Nd  Nd1  1  0.43813911  0.82887322  0.51905066  1
  As  As2  1  0.43854427  0.82872432  0.04583051  1
  As  As3  1  0.93810928  0.32849714  0.72930282  1
  Ru  Ru4  1  0.93792778  0.82815188  0.88761932  1
  Ru  Ru5  1  0.43834409  0.32847962  0.88773620  1
  O  O6  1  0.43816355  0.32949862  0.38638291  1
  O  O7  1  0.93822706  0.82935983  0.38639611  1
