# generated using pymatgen
data_NdCd3
_symmetry_space_group_name_H-M   'P 1'
_cell_length_a   4.98151302
_cell_length_b   6.87546730
_cell_length_c   6.87596941
_cell_angle_alpha   120.13868713
_cell_angle_beta   90.04807281
_cell_angle_gamma   89.97883606
_symmetry_Int_Tables_number   1
_chemical_formula_structural   NdCd3
_chemical_formula_sum   'Nd2 Cd6'
_cell_volume   203.66634936
_cell_formula_units_Z   2
loop_
 _symmetry_equiv_pos_site_id
 _symmetry_equiv_pos_as_xyz
  1  'x, y, z'
loop_
 _atom_site_type_symbol
 _atom_site_label
 _atom_site_symmetry_multiplicity
 _atom_site_fract_x
 _atom_site_fract_y
 _atom_site_fract_z
 _atom_site_occupancy
  Nd  Nd0  1  0.15016299  0.11838700  0.47314295  1
  Nd  Nd1  1  0.15004246  0.61878204  0.47342300  1
  Cd  Cd2  1  0.65001911  0.28430602  0.29455957  1
  Cd  Cd3  1  0.65019047  0.78472590  0.29495603  1
  Cd  Cd4  1  0.14975522  0.11848745  0.97345698  1
  Cd  Cd5  1  0.14996603  0.61969632  0.97370142  1
  Cd  Cd6  1  0.64971781  0.78827047  0.81660134  1
  Cd  Cd7  1  0.65031427  0.29204214  0.81732696  1
