# generated using pymatgen
data_NdCuSn
_symmetry_space_group_name_H-M   'P 1'
_cell_length_a   4.55369663
_cell_length_b   4.57379055
_cell_length_c   7.70133495
_cell_angle_alpha   90.03746796
_cell_angle_beta   90.02593994
_cell_angle_gamma   119.99021149
_symmetry_Int_Tables_number   1
_chemical_formula_structural   NdCuSn
_chemical_formula_sum   'Nd2 Cu2 Sn2'
_cell_volume   138.92473314
_cell_formula_units_Z   2
loop_
 _symmetry_equiv_pos_site_id
 _symmetry_equiv_pos_as_xyz
  1  'x, y, z'
loop_
 _atom_site_type_symbol
 _atom_site_label
 _atom_site_symmetry_multiplicity
 _atom_site_fract_x
 _atom_site_fract_y
 _atom_site_fract_z
 _atom_site_occupancy
  Nd  Nd0  1  0.63294357  0.03170034  0.13883479  1
  Nd  Nd1  1  0.63283169  0.03198777  0.63877469  1
  Cu  Cu2  1  0.96592188  0.69874197  0.38839373  1
  Cu  Cu3  1  0.29926223  0.36467531  0.88808322  1
  Sn  Sn4  1  0.29960856  0.36459079  0.38800198  1
  Sn  Sn5  1  0.96653777  0.69861829  0.88829041  1
