# generated using pymatgen
data_NdGa2Ni
_symmetry_space_group_name_H-M   'P 1'
_cell_length_a   4.40623283
_cell_length_b   5.65932226
_cell_length_c   6.44495392
_cell_angle_alpha   89.92483521
_cell_angle_beta   89.70768738
_cell_angle_gamma   113.35313416
_symmetry_Int_Tables_number   1
_chemical_formula_structural   NdGa2Ni
_chemical_formula_sum   'Nd2 Ga4 Ni2'
_cell_volume   147.54459411
_cell_formula_units_Z   2
loop_
 _symmetry_equiv_pos_site_id
 _symmetry_equiv_pos_as_xyz
  1  'x, y, z'
loop_
 _atom_site_type_symbol
 _atom_site_label
 _atom_site_symmetry_multiplicity
 _atom_site_fract_x
 _atom_site_fract_y
 _atom_site_fract_z
 _atom_site_occupancy
  Nd  Nd0  1  0.13261922  0.53870565  0.37993151  1
  Nd  Nd1  1  0.33648539  0.94961077  0.87945175  1
  Ga  Ga2  1  0.03455299  0.35039806  0.88583910  1
  Ga  Ga3  1  0.64281154  0.56818807  0.69614142  1
  Ga  Ga4  1  0.42790306  0.14004251  0.38765007  1
  Ga  Ga5  1  0.81271023  0.92130005  0.19666518  1
  Ni  Ni6  1  0.86595190  0.01575831  0.55891019  1
  Ni  Ni7  1  0.60229045  0.48722523  0.05898866  1
