# generated using pymatgen
data_NdGaPt
_symmetry_space_group_name_H-M   'P 1'
_cell_length_a   4.57999516
_cell_length_b   7.17386770
_cell_length_c   7.74205780
_cell_angle_alpha   89.86812592
_cell_angle_beta   89.95114899
_cell_angle_gamma   89.90542603
_symmetry_Int_Tables_number   1
_chemical_formula_structural   NdGaPt
_chemical_formula_sum   'Nd4 Ga4 Pt4'
_cell_volume   254.37410167
_cell_formula_units_Z   4
loop_
 _symmetry_equiv_pos_site_id
 _symmetry_equiv_pos_as_xyz
  1  'x, y, z'
loop_
 _atom_site_type_symbol
 _atom_site_label
 _atom_site_symmetry_multiplicity
 _atom_site_fract_x
 _atom_site_fract_y
 _atom_site_fract_z
 _atom_site_occupancy
  Nd  Nd0  1  0.85222071  0.86015075  0.47305912  1
  Nd  Nd1  1  0.85268539  0.36112258  0.58135629  1
  Nd  Nd2  1  0.35242233  0.83164406  0.08098302  1
  Nd  Nd3  1  0.35219377  0.33086252  0.97298312  1
  Ga  Ga4  1  0.35225219  0.67720968  0.70275116  1
  Ga  Ga5  1  0.85245270  0.51480645  0.20281243  1
  Ga  Ga6  1  0.85245258  0.01483915  0.85219061  1
  Ga  Ga7  1  0.35222161  0.17617096  0.35198978  1
  Pt  Pt8  1  0.85256886  0.12822808  0.17702852  1
  Pt  Pt9  1  0.35276991  0.56129044  0.37857255  1
  Pt  Pt10  1  0.85237354  0.62828261  0.87871271  1
  Pt  Pt11  1  0.35241425  0.06116972  0.67694521  1
