# generated using pymatgen
data_NdLuSe3
_symmetry_space_group_name_H-M   'P 1'
_cell_length_a   4.03731728
_cell_length_b   6.97467041
_cell_length_c   10.45666790
_cell_angle_alpha   95.12603760
_cell_angle_beta   90.13015747
_cell_angle_gamma   106.37302399
_symmetry_Int_Tables_number   1
_chemical_formula_structural   NdLuSe3
_chemical_formula_sum   'Nd2 Lu2 Se6'
_cell_volume   281.26197338
_cell_formula_units_Z   2
loop_
 _symmetry_equiv_pos_site_id
 _symmetry_equiv_pos_as_xyz
  1  'x, y, z'
loop_
 _atom_site_type_symbol
 _atom_site_label
 _atom_site_symmetry_multiplicity
 _atom_site_fract_x
 _atom_site_fract_y
 _atom_site_fract_z
 _atom_site_occupancy
  Nd  Nd0  1  0.64256370  0.50793445  0.61967760  1
  Nd  Nd1  1  0.90581924  0.03441819  0.22191955  1
  Lu  Lu2  1  0.15911782  0.54540998  0.03146663  1
  Lu  Lu3  1  0.41298893  0.04623331  0.85913330  1
  Se  Se4  1  0.04957265  0.31305084  0.79327077  1
  Se  Se5  1  0.02884030  0.28432643  0.45733693  1
  Se  Se6  1  0.30376917  0.83342385  0.62534070  1
  Se  Se7  1  0.78433681  0.79052436  0.94096994  1
  Se  Se8  1  0.26613605  0.76038742  0.26542529  1
  Se  Se9  1  0.52743822  0.28240851  0.10224064  1
