# generated using pymatgen
data_NdPt
_symmetry_space_group_name_H-M   'P 1'
_cell_length_a   4.59888506
_cell_length_b   5.79940367
_cell_length_c   7.27282000
_cell_angle_alpha   89.88798523
_cell_angle_beta   89.99954224
_cell_angle_gamma   90.05614471
_symmetry_Int_Tables_number   1
_chemical_formula_structural   NdPt
_chemical_formula_sum   'Nd4 Pt4'
_cell_volume   193.97139738
_cell_formula_units_Z   4
loop_
 _symmetry_equiv_pos_site_id
 _symmetry_equiv_pos_as_xyz
  1  'x, y, z'
loop_
 _atom_site_type_symbol
 _atom_site_label
 _atom_site_symmetry_multiplicity
 _atom_site_fract_x
 _atom_site_fract_y
 _atom_site_fract_z
 _atom_site_occupancy
  Nd  Nd0  1  0.07797290  0.07942531  0.46553996  1
  Nd  Nd1  1  0.57795674  0.57826120  0.32901743  1
  Nd  Nd2  1  0.07762399  0.85676211  0.96597987  1
  Nd  Nd3  1  0.57778901  0.35771003  0.82867062  1
  Pt  Pt4  1  0.57794136  0.06546586  0.19007930  1
  Pt  Pt5  1  0.07776612  0.56726360  0.60409731  1
  Pt  Pt6  1  0.07781401  0.36727944  0.10271414  1
  Pt  Pt7  1  0.57783431  0.86711216  0.68972391  1
