# generated using pymatgen
data_NdTaO4
_symmetry_space_group_name_H-M   'P 1'
_cell_length_a   5.24973392
_cell_length_b   5.47292185
_cell_length_c   6.73296118
_cell_angle_alpha   111.26313782
_cell_angle_beta   110.29992676
_cell_angle_gamma   96.16017151
_symmetry_Int_Tables_number   1
_chemical_formula_structural   NdTaO4
_chemical_formula_sum   'Nd2 Ta2 O8'
_cell_volume   162.95599052
_cell_formula_units_Z   2
loop_
 _symmetry_equiv_pos_site_id
 _symmetry_equiv_pos_as_xyz
  1  'x, y, z'
loop_
 _atom_site_type_symbol
 _atom_site_label
 _atom_site_symmetry_multiplicity
 _atom_site_fract_x
 _atom_site_fract_y
 _atom_site_fract_z
 _atom_site_occupancy
  Nd  Nd0  1  0.79439020  0.58319163  0.64244139  1
  Nd  Nd1  1  0.03787310  0.32495418  0.12393552  1
  Ta  Ta2  1  0.55908364  0.85101700  0.17476143  1
  Ta  Ta3  1  0.26766255  0.05632532  0.59100032  1
  O  O4  1  0.83831245  0.68187702  0.31830189  1
  O  O5  1  0.69901168  0.89973003  0.96251571  1
  O  O6  1  0.98737621  0.22231174  0.44390711  1
  O  O7  1  0.21426828  0.59242475  0.96225214  1
  O  O8  1  0.61970168  0.31670663  0.80095291  1
  O  O9  1  0.40367845  0.74870682  0.44393685  1
  O  O10  1  0.13416252  0.00867215  0.80078858  1
  O  O11  1  0.42433661  0.16209976  0.31835169  1
