# generated using pymatgen
data_NdZrNO2
_symmetry_space_group_name_H-M   'P 1'
_cell_length_a   5.72412920
_cell_length_b   5.94633150
_cell_length_c   8.21322060
_cell_angle_alpha   89.85288239
_cell_angle_beta   89.89225006
_cell_angle_gamma   90.02180481
_symmetry_Int_Tables_number   1
_chemical_formula_structural   NdZrNO2
_chemical_formula_sum   'Nd4 Zr4 N4 O8'
_cell_volume   279.55663248
_cell_formula_units_Z   4
loop_
 _symmetry_equiv_pos_site_id
 _symmetry_equiv_pos_as_xyz
  1  'x, y, z'
loop_
 _atom_site_type_symbol
 _atom_site_label
 _atom_site_symmetry_multiplicity
 _atom_site_fract_x
 _atom_site_fract_y
 _atom_site_fract_z
 _atom_site_occupancy
  Nd  Nd0  1  0.39556149  0.14835458  0.38784179  1
  Nd  Nd1  1  0.43922916  0.03518464  0.90003103  1
  Nd  Nd2  1  0.93867218  0.64665502  0.38545129  1
  Nd  Nd3  1  0.90602690  0.55183059  0.90295148  1
  Zr  Zr4  1  0.91508615  0.09175325  0.64742947  1
  Zr  Zr5  1  0.41530102  0.59583598  0.14729057  1
  Zr  Zr6  1  0.92619234  0.09443799  0.14727549  1
  Zr  Zr7  1  0.42726645  0.59608424  0.64735299  1
  N  N8  1  0.11777405  0.39155763  0.20063603  1
  N  N9  1  0.72019017  0.79448611  0.70157021  1
  N  N10  1  0.22060215  0.89164066  0.20160297  1
  N  N11  1  0.72047144  0.79567111  0.08620720  1
  O  O12  1  0.61665326  0.29313445  0.70132339  1
  O  O13  1  0.12063189  0.39164948  0.58400154  1
  O  O14  1  0.53244597  0.54753542  0.39728814  1
  O  O15  1  0.21986547  0.89241618  0.58456379  1
  O  O16  1  0.03244628  0.14020273  0.89156359  1
  O  O17  1  0.61673498  0.29417339  0.08636531  1
  O  O18  1  0.80667436  0.05157105  0.39743227  1
  O  O19  1  0.30636159  0.63921887  0.88993800  1
