# generated using pymatgen
data_Ni6OF11
_symmetry_space_group_name_H-M   'P 1'
_cell_length_a   4.82800865
_cell_length_b   5.57366800
_cell_length_c   7.83965826
_cell_angle_alpha   86.96747589
_cell_angle_beta   89.46328735
_cell_angle_gamma   89.71188354
_symmetry_Int_Tables_number   1
_chemical_formula_structural   Ni6OF11
_chemical_formula_sum   'Ni6 O1 F11'
_cell_volume   210.65615564
_cell_formula_units_Z   1
loop_
 _symmetry_equiv_pos_site_id
 _symmetry_equiv_pos_as_xyz
  1  'x, y, z'
loop_
 _atom_site_type_symbol
 _atom_site_label
 _atom_site_symmetry_multiplicity
 _atom_site_fract_x
 _atom_site_fract_y
 _atom_site_fract_z
 _atom_site_occupancy
  Ni  Ni0  1  0.54078776  0.38853851  0.15658793  1
  Ni  Ni1  1  0.03795062  0.54657066  0.49238950  1
  Ni  Ni2  1  0.53587174  0.04666308  0.49233600  1
  Ni  Ni3  1  0.03513413  0.21209325  0.82679582  1
  Ni  Ni4  1  0.54665095  0.71161330  0.83470970  1
  Ni  Ni5  1  0.02413838  0.86867708  0.15296811  1
  O  O6  1  0.73037297  0.67265910  0.05785005  1
  F  F7  1  0.33761713  0.07952634  0.25734255  1
  F  F8  1  0.84075028  0.84687930  0.39113814  1
  F  F9  1  0.33498818  0.41043365  0.92535472  1
  F  F10  1  0.34377083  0.74657571  0.59577620  1
  F  F11  1  0.83592790  0.17383809  0.05909306  1
  F  F12  1  0.23232512  0.24573396  0.59223855  1
  F  F13  1  0.73123223  0.34471399  0.39017084  1
  F  F14  1  0.83544564  0.50984931  0.72445285  1
  F  F15  1  0.23075767  0.57963741  0.25925812  1
  F  F16  1  0.73200715  0.00828564  0.72383612  1
  F  F17  1  0.23349376  0.90923721  0.92517895  1
