# generated using pymatgen
data_Ni6OF11
_symmetry_space_group_name_H-M   'P 1'
_cell_length_a   5.60514784
_cell_length_b   5.60792637
_cell_length_c   7.32158804
_cell_angle_alpha   73.17781067
_cell_angle_beta   73.17481232
_cell_angle_gamma   72.92156982
_symmetry_Int_Tables_number   1
_chemical_formula_structural   Ni6OF11
_chemical_formula_sum   'Ni6 O1 F11'
_cell_volume   205.25427011
_cell_formula_units_Z   1
loop_
 _symmetry_equiv_pos_site_id
 _symmetry_equiv_pos_as_xyz
  1  'x, y, z'
loop_
 _atom_site_type_symbol
 _atom_site_label
 _atom_site_symmetry_multiplicity
 _atom_site_fract_x
 _atom_site_fract_y
 _atom_site_fract_z
 _atom_site_occupancy
  Ni  Ni0  1  0.13193074  0.16193169  0.06373125  1
  Ni  Ni1  1  0.45637342  0.48751509  0.73511577  1
  Ni  Ni2  1  0.12449511  0.15464905  0.56094539  1
  Ni  Ni3  1  0.79059839  0.82233143  0.39373031  1
  Ni  Ni4  1  0.78996700  0.82303113  0.89444619  1
  Ni  Ni5  1  0.45391321  0.48592958  0.22265705  1
  O  O6  1  0.35764891  0.38690659  0.02296834  1
  F  F7  1  0.55651218  0.58567786  0.42943975  1
  F  F8  1  0.48596486  0.12712534  0.39162695  1
  F  F9  1  0.69060671  0.72170216  0.68925101  1
  F  F10  1  0.76097065  0.18687774  0.72363251  1
  F  F11  1  0.15570790  0.79137999  0.72408277  1
  F  F12  1  0.81975961  0.46059346  0.06195170  1
  F  F13  1  0.02514125  0.05611530  0.35523918  1
  F  F14  1  0.09368253  0.51940382  0.39141738  1
  F  F15  1  0.89858019  0.92943621  0.09018257  1
  F  F16  1  0.22612509  0.25671482  0.76104653  1
  F  F17  1  0.42764112  0.84925503  0.06183223  1
