# generated using pymatgen
data_Np(GeRh)2
_symmetry_space_group_name_H-M   'P 1'
_cell_length_a   4.14354801
_cell_length_b   4.10022688
_cell_length_c   6.04766273
_cell_angle_alpha   109.93008423
_cell_angle_beta   109.89021301
_cell_angle_gamma   90.16929626
_symmetry_Int_Tables_number   1
_chemical_formula_structural   Np(GeRh)2
_chemical_formula_sum   'Np1 Ge2 Rh2'
_cell_volume   90.00530367
_cell_formula_units_Z   1
loop_
 _symmetry_equiv_pos_site_id
 _symmetry_equiv_pos_as_xyz
  1  'x, y, z'
loop_
 _atom_site_type_symbol
 _atom_site_label
 _atom_site_symmetry_multiplicity
 _atom_site_fract_x
 _atom_site_fract_y
 _atom_site_fract_z
 _atom_site_occupancy
  Np  Np0  1  0.16433126  0.15968424  0.42529655  1
  Ge  Ge1  1  0.54501790  0.54074728  0.18803665  1
  Ge  Ge2  1  0.77876532  0.77590734  0.65778393  1
  Rh  Rh3  1  0.41553590  0.91060960  0.92508185  1
  Rh  Rh4  1  0.91513491  0.41130391  0.92484754  1
