# generated using pymatgen
data_NpGa4
_symmetry_space_group_name_H-M   'P 1'
_cell_length_a   4.25521660
_cell_length_b   4.30843878
_cell_length_c   10.45429993
_cell_angle_alpha   89.91391754
_cell_angle_beta   101.89188385
_cell_angle_gamma   89.90780640
_symmetry_Int_Tables_number   1
_chemical_formula_structural   NpGa4
_chemical_formula_sum   'Np2 Ga8'
_cell_volume   187.54824542
_cell_formula_units_Z   2
loop_
 _symmetry_equiv_pos_site_id
 _symmetry_equiv_pos_as_xyz
  1  'x, y, z'
loop_
 _atom_site_type_symbol
 _atom_site_label
 _atom_site_symmetry_multiplicity
 _atom_site_fract_x
 _atom_site_fract_y
 _atom_site_fract_z
 _atom_site_occupancy
  Np  Np0  1  0.86465907  0.55315000  0.13872364  1
  Np  Np1  1  0.57047403  0.05356179  0.55098355  1
  Ga  Ga2  1  0.67144853  0.55365789  0.75673264  1
  Ga  Ga3  1  0.76242644  0.05381237  0.93579227  1
  Ga  Ga4  1  0.37130797  0.05359929  0.14905205  1
  Ga  Ga5  1  0.46921125  0.55386794  0.34904051  1
  Ga  Ga6  1  0.96729553  0.05353805  0.34324047  1
  Ga  Ga7  1  0.07184605  0.55391604  0.55102062  1
  Ga  Ga8  1  0.17199218  0.05377759  0.75770175  1
  Ga  Ga9  1  0.26187956  0.55353117  0.93556672  1
