# generated using pymatgen
data_PaCl4
_symmetry_space_group_name_H-M   'P 1'
_cell_length_a   6.68861914
_cell_length_b   6.79322100
_cell_length_c   6.99177265
_cell_angle_alpha   92.22494507
_cell_angle_beta   90.57229614
_cell_angle_gamma   92.24134064
_symmetry_Int_Tables_number   1
_chemical_formula_structural   PaCl4
_chemical_formula_sum   'Pa2 Cl8'
_cell_volume   317.18362152
_cell_formula_units_Z   2
loop_
 _symmetry_equiv_pos_site_id
 _symmetry_equiv_pos_as_xyz
  1  'x, y, z'
loop_
 _atom_site_type_symbol
 _atom_site_label
 _atom_site_symmetry_multiplicity
 _atom_site_fract_x
 _atom_site_fract_y
 _atom_site_fract_z
 _atom_site_occupancy
  Pa  Pa0  1  0.03224403  0.07504803  0.84109062  1
  Pa  Pa1  1  0.46863106  0.07531951  0.34100825  1
  Cl  Cl2  1  0.81055516  0.74268132  0.83723038  1
  Cl  Cl3  1  0.22411796  0.85141546  0.55215007  1
  Cl  Cl4  1  0.80298775  0.21444905  0.55270821  1
  Cl  Cl5  1  0.21637094  0.31829819  0.15872003  1
  Cl  Cl6  1  0.31616119  0.31569394  0.65895778  1
  Cl  Cl7  1  0.69988561  0.75056988  0.33846039  1
  Cl  Cl8  1  0.27775627  0.86112863  0.05288369  1
  Cl  Cl9  1  0.71719927  0.21375862  0.05290003  1
