# generated using pymatgen
data_PaO2
_symmetry_space_group_name_H-M   'P 1'
_cell_length_a   3.88544655
_cell_length_b   3.87776709
_cell_length_c   3.83327341
_cell_angle_alpha   59.40796661
_cell_angle_beta   59.54522705
_cell_angle_gamma   59.73743439
_symmetry_Int_Tables_number   1
_chemical_formula_structural   PaO2
_chemical_formula_sum   'Pa1 O2'
_cell_volume   40.43331563
_cell_formula_units_Z   1
loop_
 _symmetry_equiv_pos_site_id
 _symmetry_equiv_pos_as_xyz
  1  'x, y, z'
loop_
 _atom_site_type_symbol
 _atom_site_label
 _atom_site_symmetry_multiplicity
 _atom_site_fract_x
 _atom_site_fract_y
 _atom_site_fract_z
 _atom_site_occupancy
  Pa  Pa0  1  0.12226979  0.45601168  0.48232037  1
  O  O1  1  0.37284499  0.70682949  0.73177361  1
  O  O2  1  0.87255365  0.20583376  0.23170449  1
