# generated using pymatgen
data_Pb2IOF
_symmetry_space_group_name_H-M   'P 1'
_cell_length_a   6.00523043
_cell_length_b   6.08814573
_cell_length_c   7.52896500
_cell_angle_alpha   65.89190674
_cell_angle_beta   90.15033722
_cell_angle_gamma   89.77237701
_symmetry_Int_Tables_number   1
_chemical_formula_structural   Pb2IOF
_chemical_formula_sum   'Pb4 I2 O2 F2'
_cell_volume   251.25013984
_cell_formula_units_Z   2
loop_
 _symmetry_equiv_pos_site_id
 _symmetry_equiv_pos_as_xyz
  1  'x, y, z'
loop_
 _atom_site_type_symbol
 _atom_site_label
 _atom_site_symmetry_multiplicity
 _atom_site_fract_x
 _atom_site_fract_y
 _atom_site_fract_z
 _atom_site_occupancy
  Pb  Pb0  1  0.30221072  0.75605065  0.86364371  1
  Pb  Pb1  1  0.80175704  0.58273143  0.22650987  1
  Pb  Pb2  1  0.80228984  0.25477576  0.86315042  1
  Pb  Pb3  1  0.30115032  0.08222616  0.22623783  1
  I  I4  1  0.80272889  0.91783106  0.54508978  1
  I  I5  1  0.30261350  0.41784245  0.54419345  1
  O  O6  1  0.55523890  0.41687414  0.04472219  1
  O  O7  1  0.05495452  0.91587853  0.04527048  1
  F  F8  1  0.05316979  0.41601369  0.04470605  1
  F  F9  1  0.55382079  0.91586655  0.04520172  1
