# generated using pymatgen
data_Pb3SeO5
_symmetry_space_group_name_H-M   'P 1'
_cell_length_a   5.26309586
_cell_length_b   8.20115662
_cell_length_c   9.42276669
_cell_angle_alpha   109.36264038
_cell_angle_beta   90.89703369
_cell_angle_gamma   108.57497406
_symmetry_Int_Tables_number   1
_chemical_formula_structural   Pb3SeO5
_chemical_formula_sum   'Pb6 Se2 O10'
_cell_volume   360.36668707
_cell_formula_units_Z   2
loop_
 _symmetry_equiv_pos_site_id
 _symmetry_equiv_pos_as_xyz
  1  'x, y, z'
loop_
 _atom_site_type_symbol
 _atom_site_label
 _atom_site_symmetry_multiplicity
 _atom_site_fract_x
 _atom_site_fract_y
 _atom_site_fract_z
 _atom_site_occupancy
  Pb  Pb0  1  0.60266888  0.90392786  0.15670550  1
  Pb  Pb1  1  0.73595172  0.16358127  0.87021601  1
  Pb  Pb2  1  0.07505111  0.84041274  0.84529126  1
  Pb  Pb3  1  0.52655929  0.74642301  0.51077253  1
  Pb  Pb4  1  0.29626513  0.28640437  0.20558776  1
  Pb  Pb5  1  0.39530960  0.48733750  0.84901810  1
  Se  Se6  1  0.94588101  0.60584253  0.18391159  1
  Se  Se7  1  0.78689790  0.27932614  0.52319634  1
  O  O8  1  0.07533035  0.29166144  0.45355204  1
  O  O9  1  0.10340060  0.66362095  0.04219523  1
  O  O10  1  0.83836097  0.36597884  0.71620691  1
  O  O11  1  0.05307093  0.72238433  0.37030947  1
  O  O12  1  0.24670589  0.18805242  0.92213351  1
  O  O13  1  0.63727206  0.03539494  0.45055717  1
  O  O14  1  0.60327178  0.40418142  0.45043221  1
  O  O15  1  0.56719118  0.82882053  0.88130963  1
  O  O16  1  0.87995732  0.37598842  0.14857289  1
  O  O17  1  0.60740215  0.59562337  0.14072528  1
