# generated using pymatgen
data_PdSeO4
_symmetry_space_group_name_H-M   'P 1'
_cell_length_a   5.28638220
_cell_length_b   5.74811506
_cell_length_c   7.14957905
_cell_angle_alpha   78.84380341
_cell_angle_beta   84.45298004
_cell_angle_gamma   88.11976624
_symmetry_Int_Tables_number   1
_chemical_formula_structural   PdSeO4
_chemical_formula_sum   'Pd2 Se2 O8'
_cell_volume   212.12674785
_cell_formula_units_Z   2
loop_
 _symmetry_equiv_pos_site_id
 _symmetry_equiv_pos_as_xyz
  1  'x, y, z'
loop_
 _atom_site_type_symbol
 _atom_site_label
 _atom_site_symmetry_multiplicity
 _atom_site_fract_x
 _atom_site_fract_y
 _atom_site_fract_z
 _atom_site_occupancy
  Pd  Pd0  1  0.65276641  0.74408185  0.93199843  1
  Pd  Pd1  1  0.06995784  0.24243684  0.93593681  1
  Se  Se2  1  0.52427655  0.16496253  0.60309285  1
  Se  Se3  1  0.20152879  0.83063674  0.27602065  1
  O  O4  1  0.50156420  0.88718140  0.69506156  1
  O  O5  1  0.67859316  0.26284733  0.41835922  1
  O  O6  1  0.93132436  0.94948715  0.91942173  1
  O  O7  1  0.02331316  0.68264359  0.44129479  1
  O  O8  1  0.33632016  0.34179297  0.72569162  1
  O  O9  1  0.82368994  0.46621430  0.90658510  1
  O  O10  1  0.17547397  0.14320393  0.19547129  1
  O  O11  1  0.44187844  0.72073519  0.16197233  1
