# generated using pymatgen
data_PmGe3
_symmetry_space_group_name_H-M   'P 1'
_cell_length_a   4.15172482
_cell_length_b   4.24035072
_cell_length_c   10.07494545
_cell_angle_alpha   89.79043579
_cell_angle_beta   101.74137878
_cell_angle_gamma   90.11002350
_symmetry_Int_Tables_number   1
_chemical_formula_structural   PmGe3
_chemical_formula_sum   'Pm2 Ge6'
_cell_volume   173.65459303
_cell_formula_units_Z   2
loop_
 _symmetry_equiv_pos_site_id
 _symmetry_equiv_pos_as_xyz
  1  'x, y, z'
loop_
 _atom_site_type_symbol
 _atom_site_label
 _atom_site_symmetry_multiplicity
 _atom_site_fract_x
 _atom_site_fract_y
 _atom_site_fract_z
 _atom_site_occupancy
  Pm  Pm0  1  0.49066874  0.23894276  0.53310812  1
  Pm  Pm1  1  0.28414309  0.73906374  0.12139821  1
  Ge  Ge2  1  0.72080427  0.23958880  0.00020134  1
  Ge  Ge3  1  0.91999459  0.73890877  0.39486068  1
  Ge  Ge4  1  0.63033020  0.73963523  0.81765127  1
  Ge  Ge5  1  0.84988534  0.23971146  0.25833336  1
  Ge  Ge6  1  0.12994030  0.23933005  0.81753278  1
  Ge  Ge7  1  0.04821010  0.73930347  0.65007144  1
