# generated using pymatgen
data_PmS2
_symmetry_space_group_name_H-M   'P 1'
_cell_length_a   3.91078854
_cell_length_b   3.88475108
_cell_length_c   8.13062382
_cell_angle_alpha   90.08497620
_cell_angle_beta   90.03092957
_cell_angle_gamma   90.31178284
_symmetry_Int_Tables_number   1
_chemical_formula_structural   PmS2
_chemical_formula_sum   'Pm2 S4'
_cell_volume   123.52203122
_cell_formula_units_Z   2
loop_
 _symmetry_equiv_pos_site_id
 _symmetry_equiv_pos_as_xyz
  1  'x, y, z'
loop_
 _atom_site_type_symbol
 _atom_site_label
 _atom_site_symmetry_multiplicity
 _atom_site_fract_x
 _atom_site_fract_y
 _atom_site_fract_z
 _atom_site_occupancy
  Pm  Pm0  1  0.67407995  0.86647385  0.12100214  1
  Pm  Pm1  1  0.17361712  0.36636686  0.66855496  1
  S  S2  1  0.17368995  0.36607027  0.02948273  1
  S  S3  1  0.67385131  0.36594674  0.39338261  1
  S  S4  1  0.67386127  0.86638308  0.75951231  1
  S  S5  1  0.17386049  0.86665624  0.39383510  1
