# generated using pymatgen
data_Pr5Sn3
_symmetry_space_group_name_H-M   'P 1'
_cell_length_a   5.68383455
_cell_length_b   10.04586887
_cell_length_c   10.08141327
_cell_angle_alpha   85.04346466
_cell_angle_beta   73.43218994
_cell_angle_gamma   73.34060669
_symmetry_Int_Tables_number   1
_chemical_formula_structural   Pr5Sn3
_chemical_formula_sum   'Pr10 Sn6'
_cell_volume   528.57475135
_cell_formula_units_Z   2
loop_
 _symmetry_equiv_pos_site_id
 _symmetry_equiv_pos_as_xyz
  1  'x, y, z'
loop_
 _atom_site_type_symbol
 _atom_site_label
 _atom_site_symmetry_multiplicity
 _atom_site_fract_x
 _atom_site_fract_y
 _atom_site_fract_z
 _atom_site_occupancy
  Pr  Pr0  1  0.93254793  0.89019674  0.26001075  1
  Pr  Pr1  1  0.30928400  0.13670887  0.25816664  1
  Pr  Pr2  1  0.45317200  0.51252919  0.58881003  1
  Pr  Pr3  1  0.96367109  0.14368139  0.94965494  1
  Pr  Pr4  1  0.06957198  0.51377237  0.33890969  1
  Pr  Pr5  1  0.86380452  0.51300812  0.78580141  1
  Pr  Pr6  1  0.59053797  0.87846845  0.95020986  1
  Pr  Pr7  1  0.68566978  0.51204133  0.10950604  1
  Pr  Pr8  1  0.24603264  0.89143056  0.63795310  1
  Pr  Pr9  1  0.62116641  0.13310438  0.63551468  1
  Sn  Sn10  1  0.82706994  0.75951993  0.58575886  1
  Sn  Sn11  1  0.08002225  0.26489002  0.58135837  1
  Sn  Sn12  1  0.18051659  0.68901682  0.94776046  1
  Sn  Sn13  1  0.70575118  0.26746437  0.31698787  1
  Sn  Sn14  1  0.46327636  0.75601059  0.31633127  1
  Sn  Sn15  1  0.36682078  0.33325154  0.94778526  1
