# generated using pymatgen
data_PrAl4
_symmetry_space_group_name_H-M   'P 1'
_cell_length_a   4.31139803
_cell_length_b   4.27814484
_cell_length_c   6.46283770
_cell_angle_alpha   109.24939728
_cell_angle_beta   109.26072693
_cell_angle_gamma   89.89491272
_symmetry_Int_Tables_number   1
_chemical_formula_structural   PrAl4
_chemical_formula_sum   'Pr1 Al4'
_cell_volume   105.47468775
_cell_formula_units_Z   1
loop_
 _symmetry_equiv_pos_site_id
 _symmetry_equiv_pos_as_xyz
  1  'x, y, z'
loop_
 _atom_site_type_symbol
 _atom_site_label
 _atom_site_symmetry_multiplicity
 _atom_site_fract_x
 _atom_site_fract_y
 _atom_site_fract_z
 _atom_site_occupancy
  Pr  Pr0  1  0.17788669  0.33908948  0.32071865  1
  Al  Al1  1  0.92838615  0.58752811  0.81994522  1
  Al  Al2  1  0.56523675  0.72709262  0.09814394  1
  Al  Al3  1  0.42762667  0.08846803  0.82007158  1
  Al  Al4  1  0.79033190  0.95096284  0.54592979  1
