# generated using pymatgen
data_PrBi2Au
_symmetry_space_group_name_H-M   'P 1'
_cell_length_a   4.82560015
_cell_length_b   4.81583881
_cell_length_c   9.88544083
_cell_angle_alpha   89.92549133
_cell_angle_beta   89.95293427
_cell_angle_gamma   90.05224609
_symmetry_Int_Tables_number   1
_chemical_formula_structural   PrBi2Au
_chemical_formula_sum   'Pr2 Bi4 Au2'
_cell_volume   229.73048096
_cell_formula_units_Z   2
loop_
 _symmetry_equiv_pos_site_id
 _symmetry_equiv_pos_as_xyz
  1  'x, y, z'
loop_
 _atom_site_type_symbol
 _atom_site_label
 _atom_site_symmetry_multiplicity
 _atom_site_fract_x
 _atom_site_fract_y
 _atom_site_fract_z
 _atom_site_occupancy
  Pr  Pr0  1  0.13903698  0.84324175  0.00472432  1
  Pr  Pr1  1  0.63912082  0.34292948  0.50286263  1
  Bi  Bi2  1  0.63838261  0.84341067  0.25544953  1
  Bi  Bi3  1  0.13874130  0.34340036  0.75493109  1
  Bi  Bi4  1  0.13864216  0.34338641  0.25509906  1
  Bi  Bi5  1  0.63879204  0.84367067  0.75588828  1
  Au  Au6  1  0.13911484  0.84324628  0.50350869  1
  Au  Au7  1  0.63852686  0.34318984  0.00337320  1
