# generated using pymatgen
data_PrDy3
_symmetry_space_group_name_H-M   'P 1'
_cell_length_a   5.12195683
_cell_length_b   5.10997057
_cell_length_c   5.11578989
_cell_angle_alpha   89.79895782
_cell_angle_beta   89.66438293
_cell_angle_gamma   90.01084900
_symmetry_Int_Tables_number   1
_chemical_formula_structural   PrDy3
_chemical_formula_sum   'Pr1 Dy3'
_cell_volume   133.89269332
_cell_formula_units_Z   1
loop_
 _symmetry_equiv_pos_site_id
 _symmetry_equiv_pos_as_xyz
  1  'x, y, z'
loop_
 _atom_site_type_symbol
 _atom_site_label
 _atom_site_symmetry_multiplicity
 _atom_site_fract_x
 _atom_site_fract_y
 _atom_site_fract_z
 _atom_site_occupancy
  Pr  Pr0  1  0.52287316  0.64103121  0.88305336  1
  Dy  Dy1  1  0.52341920  0.14082487  0.38351715  1
  Dy  Dy2  1  0.02300336  0.14129134  0.88326037  1
  Dy  Dy3  1  0.02306889  0.64072543  0.38300687  1
