# generated using pymatgen
data_PrInPd
_symmetry_space_group_name_H-M   'P 1'
_cell_length_a   4.22879171
_cell_length_b   7.85860634
_cell_length_c   7.87136173
_cell_angle_alpha   120.12807465
_cell_angle_beta   90.18662262
_cell_angle_gamma   89.96846771
_symmetry_Int_Tables_number   1
_chemical_formula_structural   PrInPd
_chemical_formula_sum   'Pr3 In3 Pd3'
_cell_volume   226.24435571
_cell_formula_units_Z   3
loop_
 _symmetry_equiv_pos_site_id
 _symmetry_equiv_pos_as_xyz
  1  'x, y, z'
loop_
 _atom_site_type_symbol
 _atom_site_label
 _atom_site_symmetry_multiplicity
 _atom_site_fract_x
 _atom_site_fract_y
 _atom_site_fract_z
 _atom_site_occupancy
  Pr  Pr0  1  0.10517024  0.84295112  0.93309057  1
  Pr  Pr1  1  0.10574537  0.43007842  0.10915582  1
  Pr  Pr2  1  0.10503088  0.01774106  0.52102077  1
  In  In3  1  0.60518390  0.18083979  0.27050883  1
  In  In4  1  0.60504109  0.67854184  0.52028543  1
  In  In5  1  0.60541892  0.42968377  0.77070111  1
  Pd  Pd6  1  0.60521108  0.76401240  0.18747093  1
  Pd  Pd7  1  0.10517935  0.43016693  0.52045840  1
  Pd  Pd8  1  0.60521358  0.09643036  0.85486633  1
