# generated using pymatgen
data_PrMgZn2
_symmetry_space_group_name_H-M   'P 1'
_cell_length_a   4.94361115
_cell_length_b   4.94683027
_cell_length_c   4.95568943
_cell_angle_alpha   60.03163147
_cell_angle_beta   59.83481216
_cell_angle_gamma   60.06450272
_symmetry_Int_Tables_number   1
_chemical_formula_structural   PrMgZn2
_chemical_formula_sum   'Pr1 Mg1 Zn2'
_cell_volume   85.65043598
_cell_formula_units_Z   1
loop_
 _symmetry_equiv_pos_site_id
 _symmetry_equiv_pos_as_xyz
  1  'x, y, z'
loop_
 _atom_site_type_symbol
 _atom_site_label
 _atom_site_symmetry_multiplicity
 _atom_site_fract_x
 _atom_site_fract_y
 _atom_site_fract_z
 _atom_site_occupancy
  Pr  Pr0  1  0.80592442  0.92934650  0.56812024  1
  Mg  Mg1  1  0.30582801  0.42926368  0.06884935  1
  Zn  Zn2  1  0.05547081  0.17862500  0.81814438  1
  Zn  Zn3  1  0.55577379  0.67869765  0.31873906  1
