# generated using pymatgen
data_PrMnSi2
_symmetry_space_group_name_H-M   'P 1'
_cell_length_a   4.09229088
_cell_length_b   4.12472391
_cell_length_c   8.94935131
_cell_angle_alpha   90.05425262
_cell_angle_beta   102.98973846
_cell_angle_gamma   89.85138702
_symmetry_Int_Tables_number   1
_chemical_formula_structural   PrMnSi2
_chemical_formula_sum   'Pr2 Mn2 Si4'
_cell_volume   147.19509163
_cell_formula_units_Z   2
loop_
 _symmetry_equiv_pos_site_id
 _symmetry_equiv_pos_as_xyz
  1  'x, y, z'
loop_
 _atom_site_type_symbol
 _atom_site_label
 _atom_site_symmetry_multiplicity
 _atom_site_fract_x
 _atom_site_fract_y
 _atom_site_fract_z
 _atom_site_occupancy
  Pr  Pr0  1  0.99723029  0.58761406  0.19359423  1
  Pr  Pr1  1  0.79718840  0.08737312  0.78706223  1
  Mn  Mn2  1  0.64834309  0.58776337  0.49048737  1
  Mn  Mn3  1  0.14821658  0.08742044  0.49056923  1
  Si  Si4  1  0.43392628  0.08747930  0.06230104  1
  Si  Si5  1  0.22149609  0.58806527  0.63304418  1
  Si  Si6  1  0.57594907  0.08806932  0.34885934  1
  Si  Si7  1  0.36580187  0.58724546  0.92452317  1
