# generated using pymatgen
data_PrMn7O12
_symmetry_space_group_name_H-M   'P 1'
_cell_length_a   6.55092669
_cell_length_b   6.56723499
_cell_length_c   6.54189014
_cell_angle_alpha   109.41107178
_cell_angle_beta   109.26132202
_cell_angle_gamma   109.73094177
_symmetry_Int_Tables_number   1
_chemical_formula_structural   PrMn7O12
_chemical_formula_sum   'Pr1 Mn7 O12'
_cell_volume   216.67872556
_cell_formula_units_Z   1
loop_
 _symmetry_equiv_pos_site_id
 _symmetry_equiv_pos_as_xyz
  1  'x, y, z'
loop_
 _atom_site_type_symbol
 _atom_site_label
 _atom_site_symmetry_multiplicity
 _atom_site_fract_x
 _atom_site_fract_y
 _atom_site_fract_z
 _atom_site_occupancy
  Pr  Pr0  1  0.68206543  0.03084962  0.21668342  1
  Mn  Mn1  1  0.18194845  0.03074983  0.71624517  1
  Mn  Mn2  1  0.68205059  0.03082798  0.71626264  1
  Mn  Mn3  1  0.18241583  0.52994931  0.21607451  1
  Mn  Mn4  1  0.18184999  0.03082638  0.21622314  1
  Mn  Mn5  1  0.68149108  0.53071785  0.71640646  1
  Mn  Mn6  1  0.68163866  0.53095067  0.21612132  1
  Mn  Mn7  1  0.18209557  0.53057420  0.71605319  1
  O  O8  1  0.37385058  0.89916617  0.38344282  1
  O  O9  1  0.50455040  0.72034222  0.73122525  1
  O  O10  1  0.98893040  0.16247822  0.04428278  1
  O  O11  1  0.81790727  0.86137009  0.52443010  1
  O  O12  1  0.85690850  0.72231996  0.08164721  1
  O  O13  1  0.98916960  0.51330119  0.38452864  1
  O  O14  1  0.54988551  0.20316119  0.90558982  1
  O  O15  1  0.37506676  0.54997480  0.04143582  1
  O  O16  1  0.20155486  0.86225879  0.90767562  1
  O  O17  1  0.16371921  0.20424266  0.52172303  1
  O  O18  1  0.85728365  0.33877906  0.69489855  1
  O  O19  1  0.50574589  0.33880168  0.34817678  1
