# generated using pymatgen
data_PrNbO4
_symmetry_space_group_name_H-M   'P 1'
_cell_length_a   5.27361155
_cell_length_b   5.56897688
_cell_length_c   6.84830809
_cell_angle_alpha   111.56164551
_cell_angle_beta   110.97342682
_cell_angle_gamma   94.60813904
_symmetry_Int_Tables_number   1
_chemical_formula_structural   PrNbO4
_chemical_formula_sum   'Pr2 Nb2 O8'
_cell_volume   169.37979286
_cell_formula_units_Z   2
loop_
 _symmetry_equiv_pos_site_id
 _symmetry_equiv_pos_as_xyz
  1  'x, y, z'
loop_
 _atom_site_type_symbol
 _atom_site_label
 _atom_site_symmetry_multiplicity
 _atom_site_fract_x
 _atom_site_fract_y
 _atom_site_fract_z
 _atom_site_occupancy
  Pr  Pr0  1  0.86429703  0.17730974  0.86175990  1
  Pr  Pr1  1  0.61890930  0.43433741  0.37861088  1
  Nb  Nb2  1  0.38201413  0.69923854  0.90689862  1
  Nb  Nb3  1  0.09629452  0.91286343  0.33502209  1
  O  O4  1  0.82968694  0.08239106  0.18932551  1
  O  O5  1  0.21748032  0.59845752  0.18967648  1
  O  O6  1  0.64542693  0.52737772  0.05409122  1
  O  O7  1  0.95461899  0.85891610  0.53521204  1
  O  O8  1  0.52758098  0.75437367  0.70734948  1
  O  O9  1  0.03937221  0.44656932  0.70797038  1
  O  O10  1  0.26014194  0.01315615  0.05440126  1
  O  O11  1  0.43960139  0.16931750  0.53529525  1
