# generated using pymatgen
data_Pu(SiNi)2
_symmetry_space_group_name_H-M   'P 1'
_cell_length_a   3.91569924
_cell_length_b   3.91228700
_cell_length_c   5.54949236
_cell_angle_alpha   110.39551544
_cell_angle_beta   110.33114624
_cell_angle_gamma   90.14932251
_symmetry_Int_Tables_number   1
_chemical_formula_structural   Pu(SiNi)2
_chemical_formula_sum   'Pu1 Si2 Ni2'
_cell_volume   73.97694914
_cell_formula_units_Z   1
loop_
 _symmetry_equiv_pos_site_id
 _symmetry_equiv_pos_as_xyz
  1  'x, y, z'
loop_
 _atom_site_type_symbol
 _atom_site_label
 _atom_site_symmetry_multiplicity
 _atom_site_fract_x
 _atom_site_fract_y
 _atom_site_fract_z
 _atom_site_occupancy
  Pu  Pu0  1  0.14337204  0.57214814  0.33678976  1
  Si  Si1  1  0.76758015  0.19554351  0.58440071  1
  Si  Si2  1  0.51691842  0.94643921  0.08618664  1
  Ni  Ni3  1  0.39274323  0.32121620  0.83655816  1
  Ni  Ni4  1  0.89288241  0.82144141  0.83623922  1
