# generated using pymatgen
data_Rb2CN2
_symmetry_space_group_name_H-M   'P 1'
_cell_length_a   4.52132845
_cell_length_b   4.52044201
_cell_length_c   5.85731030
_cell_angle_alpha   79.73239136
_cell_angle_beta   79.75373840
_cell_angle_gamma   87.55419922
_symmetry_Int_Tables_number   1
_chemical_formula_structural   Rb2CN2
_chemical_formula_sum   'Rb2 C1 N2'
_cell_volume   115.91093661
_cell_formula_units_Z   1
loop_
 _symmetry_equiv_pos_site_id
 _symmetry_equiv_pos_as_xyz
  1  'x, y, z'
loop_
 _atom_site_type_symbol
 _atom_site_label
 _atom_site_symmetry_multiplicity
 _atom_site_fract_x
 _atom_site_fract_y
 _atom_site_fract_z
 _atom_site_occupancy
  Rb  Rb0  1  0.64218593  0.73230124  0.47056803  1
  Rb  Rb1  1  0.24331553  0.32978460  0.02858080  1
  C  C2  1  0.93693674  0.02272614  0.75044560  1
  N  N3  1  0.77605671  0.86419845  0.94402969  1
  N  N4  1  0.09230285  0.19074216  0.56924152  1
