# generated using pymatgen
data_Rb2HgAu
_symmetry_space_group_name_H-M   'P 1'
_cell_length_a   6.10314608
_cell_length_b   6.10325718
_cell_length_c   6.08856153
_cell_angle_alpha   59.87233353
_cell_angle_beta   59.88828659
_cell_angle_gamma   59.99933243
_symmetry_Int_Tables_number   1
_chemical_formula_structural   Rb2HgAu
_chemical_formula_sum   'Rb2 Hg1 Au1'
_cell_volume   160.07550327
_cell_formula_units_Z   1
loop_
 _symmetry_equiv_pos_site_id
 _symmetry_equiv_pos_as_xyz
  1  'x, y, z'
loop_
 _atom_site_type_symbol
 _atom_site_label
 _atom_site_symmetry_multiplicity
 _atom_site_fract_x
 _atom_site_fract_y
 _atom_site_fract_z
 _atom_site_occupancy
  Rb  Rb0  1  0.49079007  0.20266354  0.36969316  1
  Rb  Rb1  1  0.99046141  0.70258850  0.86961704  1
  Hg  Hg2  1  0.24031481  0.95198160  0.11958229  1
  Au  Au3  1  0.74018490  0.45181313  0.61959863  1
