# generated using pymatgen
data_Rb2InGaCl6
_symmetry_space_group_name_H-M   'P 1'
_cell_length_a   7.59781218
_cell_length_b   7.59130335
_cell_length_c   7.59254599
_cell_angle_alpha   59.88103104
_cell_angle_beta   59.97270203
_cell_angle_gamma   60.06490326
_symmetry_Int_Tables_number   1
_chemical_formula_structural   Rb2InGaCl6
_chemical_formula_sum   'Rb2 In1 Ga1 Cl6'
_cell_volume   309.46241932
_cell_formula_units_Z   1
loop_
 _symmetry_equiv_pos_site_id
 _symmetry_equiv_pos_as_xyz
  1  'x, y, z'
loop_
 _atom_site_type_symbol
 _atom_site_label
 _atom_site_symmetry_multiplicity
 _atom_site_fract_x
 _atom_site_fract_y
 _atom_site_fract_z
 _atom_site_occupancy
  Rb  Rb0  1  0.79898542  0.56743842  0.50431037  1
  Rb  Rb1  1  0.29971045  0.06754778  0.00451992  1
  In  In2  1  0.04979714  0.81738007  0.75500458  1
  Ga  Ga3  1  0.54949903  0.31758785  0.25496718  1
  Cl  Cl4  1  0.32518187  0.54256409  0.47865969  1
  Cl  Cl5  1  0.77594972  0.09297887  0.47762901  1
  Cl  Cl6  1  0.32572946  0.09289950  0.47782952  1
  Cl  Cl7  1  0.77471751  0.54275113  0.02877748  1
  Cl  Cl8  1  0.77488464  0.09319417  0.02875735  1
  Cl  Cl9  1  0.32431445  0.54211897  0.02868510  1
