# generated using pymatgen
data_Rb2LiInCl6
_symmetry_space_group_name_H-M   'P 1'
_cell_length_a   7.29387093
_cell_length_b   7.30264568
_cell_length_c   7.31244707
_cell_angle_alpha   59.89189911
_cell_angle_beta   59.87110138
_cell_angle_gamma   59.86627960
_symmetry_Int_Tables_number   1
_chemical_formula_structural   Rb2LiInCl6
_chemical_formula_sum   'Rb2 Li1 In1 Cl6'
_cell_volume   274.64175727
_cell_formula_units_Z   1
loop_
 _symmetry_equiv_pos_site_id
 _symmetry_equiv_pos_as_xyz
  1  'x, y, z'
loop_
 _atom_site_type_symbol
 _atom_site_label
 _atom_site_symmetry_multiplicity
 _atom_site_fract_x
 _atom_site_fract_y
 _atom_site_fract_z
 _atom_site_occupancy
  Rb  Rb0  1  0.88621014  0.17450152  0.31593052  1
  Rb  Rb1  1  0.38621968  0.67518193  0.81585824  1
  Li  Li2  1  0.13578741  0.42487413  0.56616056  1
  In  In3  1  0.63589704  0.92448765  0.06584336  1
  Cl  Cl4  1  0.38915253  0.17251794  0.81876785  1
  Cl  Cl5  1  0.38894680  0.67827439  0.31263739  1
  Cl  Cl6  1  0.88303894  0.67834550  0.31250715  1
  Cl  Cl7  1  0.38819268  0.17190453  0.31265834  1
  Cl  Cl8  1  0.88295293  0.67903543  0.81828249  1
  Cl  Cl9  1  0.88296187  0.17222147  0.81939995  1
