# generated using pymatgen
data_Rb2NaAsCl6
_symmetry_space_group_name_H-M   'P 1'
_cell_length_a   7.55737448
_cell_length_b   7.55717278
_cell_length_c   7.54844379
_cell_angle_alpha   59.65148163
_cell_angle_beta   59.71335602
_cell_angle_gamma   59.72258377
_symmetry_Int_Tables_number   1
_chemical_formula_structural   Rb2NaAsCl6
_chemical_formula_sum   'Rb2 Na1 As1 Cl6'
_cell_volume   302.73384769
_cell_formula_units_Z   1
loop_
 _symmetry_equiv_pos_site_id
 _symmetry_equiv_pos_as_xyz
  1  'x, y, z'
loop_
 _atom_site_type_symbol
 _atom_site_label
 _atom_site_symmetry_multiplicity
 _atom_site_fract_x
 _atom_site_fract_y
 _atom_site_fract_z
 _atom_site_occupancy
  Rb  Rb0  1  0.28159770  0.94099104  0.89679462  1
  Rb  Rb1  1  0.78146404  0.44132051  0.39650178  1
  Na  Na2  1  0.53138983  0.19147199  0.14712065  1
  As  As3  1  0.03141319  0.69156539  0.64689994  1
  Cl  Cl4  1  0.79286778  0.92976141  0.88481247  1
  Cl  Cl5  1  0.79211366  0.45419714  0.88471705  1
  Cl  Cl6  1  0.26895994  0.45403862  0.40841067  1
  Cl  Cl7  1  0.79317230  0.92965370  0.40778774  1
  Cl  Cl8  1  0.26977247  0.92841482  0.40840146  1
  Cl  Cl9  1  0.26937523  0.45423201  0.88513380  1
