# generated using pymatgen
data_Rb2NaNbF6
_symmetry_space_group_name_H-M   'P 1'
_cell_length_a   6.27864027
_cell_length_b   6.28063297
_cell_length_c   6.26511765
_cell_angle_alpha   59.85957336
_cell_angle_beta   59.81274414
_cell_angle_gamma   59.91514587
_symmetry_Int_Tables_number   1
_chemical_formula_structural   Rb2NaNbF6
_chemical_formula_sum   'Rb2 Na1 Nb1 F6'
_cell_volume   174.15070836
_cell_formula_units_Z   1
loop_
 _symmetry_equiv_pos_site_id
 _symmetry_equiv_pos_as_xyz
  1  'x, y, z'
loop_
 _atom_site_type_symbol
 _atom_site_label
 _atom_site_symmetry_multiplicity
 _atom_site_fract_x
 _atom_site_fract_y
 _atom_site_fract_z
 _atom_site_occupancy
  Rb  Rb0  1  0.05391971  0.80681586  0.23134959  1
  Rb  Rb1  1  0.55527842  0.30680510  0.73172534  1
  Na  Na2  1  0.80409676  0.55820715  0.98159069  1
  Nb  Nb3  1  0.30509055  0.05790338  0.48219165  1
  F  F4  1  0.06617639  0.82059455  0.71743828  1
  F  F5  1  0.54067785  0.82113630  0.71760684  1
  F  F6  1  0.06649713  0.29450282  0.24435192  1
  F  F7  1  0.06648369  0.29452485  0.71763957  1
  F  F8  1  0.54076302  0.29457155  0.24468331  1
  F  F9  1  0.54085946  0.82061803  0.24444978  1
