# generated using pymatgen
data_Rb2NaYCl6
_symmetry_space_group_name_H-M   'P 1'
_cell_length_a   7.68848276
_cell_length_b   7.71149731
_cell_length_c   7.69550562
_cell_angle_alpha   59.74881363
_cell_angle_beta   59.79911041
_cell_angle_gamma   59.91210938
_symmetry_Int_Tables_number   1
_chemical_formula_structural   Rb2NaYCl6
_chemical_formula_sum   'Rb2 Na1 Y1 Cl6'
_cell_volume   321.30816221
_cell_formula_units_Z   1
loop_
 _symmetry_equiv_pos_site_id
 _symmetry_equiv_pos_as_xyz
  1  'x, y, z'
loop_
 _atom_site_type_symbol
 _atom_site_label
 _atom_site_symmetry_multiplicity
 _atom_site_fract_x
 _atom_site_fract_y
 _atom_site_fract_z
 _atom_site_occupancy
  Rb  Rb0  1  0.62588704  0.91587669  0.68602639  1
  Rb  Rb1  1  0.12576486  0.41521385  0.18529908  1
  Na  Na2  1  0.37598038  0.66634613  0.43580657  1
  Y  Y3  1  0.87614334  0.16545430  0.93501449  1
  Cl  Cl4  1  0.63057226  0.41086915  0.17941321  1
  Cl  Cl5  1  0.12125903  0.41086096  0.68929392  1
  Cl  Cl6  1  0.63095963  0.41225839  0.68955398  1
  Cl  Cl7  1  0.63044512  0.92214644  0.17953025  1
  Cl  Cl8  1  0.12084104  0.92175859  0.17901038  1
  Cl  Cl9  1  0.12026888  0.92255366  0.69008827  1
