# generated using pymatgen
data_Rb2PtCl6
_symmetry_space_group_name_H-M   'P 1'
_cell_length_a   7.27615404
_cell_length_b   7.27647352
_cell_length_c   7.26824427
_cell_angle_alpha   59.71034622
_cell_angle_beta   59.73249817
_cell_angle_gamma   59.78995132
_symmetry_Int_Tables_number   1
_chemical_formula_structural   Rb2PtCl6
_chemical_formula_sum   'Rb2 Pt1 Cl6'
_cell_volume   270.52501496
_cell_formula_units_Z   1
loop_
 _symmetry_equiv_pos_site_id
 _symmetry_equiv_pos_as_xyz
  1  'x, y, z'
loop_
 _atom_site_type_symbol
 _atom_site_label
 _atom_site_symmetry_multiplicity
 _atom_site_fract_x
 _atom_site_fract_y
 _atom_site_fract_z
 _atom_site_occupancy
  Rb  Rb0  1  0.74630654  0.56655061  0.85053605  1
  Rb  Rb1  1  0.24622877  0.06650972  0.35070804  1
  Pt  Pt2  1  0.49692282  0.31679431  0.60034645  1
  Cl  Cl3  1  0.26775041  0.54851145  0.82986450  1
  Cl  Cl4  1  0.72698516  0.08743387  0.37116840  1
  Cl  Cl5  1  0.72650445  0.54777068  0.37079486  1
  Cl  Cl6  1  0.26744857  0.54829741  0.37033167  1
  Cl  Cl7  1  0.72681600  0.08822937  0.83005536  1
  Cl  Cl8  1  0.26713669  0.08814746  0.83036888  1
