# generated using pymatgen
data_Rb2TaCuSe4
_symmetry_space_group_name_H-M   'P 1'
_cell_length_a   5.77984810
_cell_length_b   7.57505703
_cell_length_c   13.06382942
_cell_angle_alpha   84.74510956
_cell_angle_beta   77.05659485
_cell_angle_gamma   67.37899780
_symmetry_Int_Tables_number   1
_chemical_formula_structural   Rb2TaCuSe4
_chemical_formula_sum   'Rb4 Ta2 Cu2 Se8'
_cell_volume   514.54334104
_cell_formula_units_Z   2
loop_
 _symmetry_equiv_pos_site_id
 _symmetry_equiv_pos_as_xyz
  1  'x, y, z'
loop_
 _atom_site_type_symbol
 _atom_site_label
 _atom_site_symmetry_multiplicity
 _atom_site_fract_x
 _atom_site_fract_y
 _atom_site_fract_z
 _atom_site_occupancy
  Rb  Rb0  1  0.79123646  0.72363436  0.96505463  1
  Rb  Rb1  1  0.54043067  0.22390790  0.46492627  1
  Rb  Rb2  1  0.18098260  0.22262403  0.17708109  1
  Rb  Rb3  1  0.42995465  0.72247130  0.67732388  1
  Ta  Ta4  1  0.36318457  0.22234118  0.81950879  1
  Ta  Ta5  1  0.11228128  0.72243005  0.32037696  1
  Cu  Cu6  1  0.86348957  0.22245650  0.81980723  1
  Cu  Cu7  1  0.61301875  0.72282857  0.31996390  1
  Se  Se8  1  0.21088822  0.92036557  0.43226829  1
  Se  Se9  1  0.81182873  0.92193073  0.21108271  1
  Se  Se10  1  0.45509395  0.42101854  0.93326336  1
  Se  Se11  1  0.06834159  0.42107588  0.71097535  1
  Se  Se12  1  0.75276637  0.02587578  0.71125674  1
  Se  Se13  1  0.90408796  0.52831483  0.43142283  1
  Se  Se14  1  0.51902223  0.52748871  0.21106014  1
  Se  Se15  1  0.16114300  0.02761540  0.93203634  1
