# generated using pymatgen
data_Rb2TlAuI6
_symmetry_space_group_name_H-M   'P 1'
_cell_length_a   8.49709511
_cell_length_b   8.51614189
_cell_length_c   8.49578953
_cell_angle_alpha   59.95631790
_cell_angle_beta   59.79731369
_cell_angle_gamma   59.92104721
_symmetry_Int_Tables_number   1
_chemical_formula_structural   Rb2TlAuI6
_chemical_formula_sum   'Rb2 Tl1 Au1 I6'
_cell_volume   433.64112251
_cell_formula_units_Z   1
loop_
 _symmetry_equiv_pos_site_id
 _symmetry_equiv_pos_as_xyz
  1  'x, y, z'
loop_
 _atom_site_type_symbol
 _atom_site_label
 _atom_site_symmetry_multiplicity
 _atom_site_fract_x
 _atom_site_fract_y
 _atom_site_fract_z
 _atom_site_occupancy
  Rb  Rb0  1  0.05042842  0.01752251  0.66489017  1
  Rb  Rb1  1  0.54960138  0.51676363  0.16499156  1
  Tl  Tl2  1  0.30006918  0.26745799  0.91510558  1
  Au  Au3  1  0.80051798  0.76660013  0.41471601  1
  I  I4  1  0.04130566  0.52666444  0.65567416  1
  I  I5  1  0.55939966  0.00867623  0.65457296  1
  I  I6  1  0.04151613  0.00766046  0.17283075  1
  I  I7  1  0.55810130  0.52645636  0.65549862  1
  I  I8  1  0.55861878  0.00719942  0.17231791  1
  I  I9  1  0.04121003  0.52569610  0.17284542  1
