# generated using pymatgen
data_Rb2TlPdF6
_symmetry_space_group_name_H-M   'P 1'
_cell_length_a   6.47641134
_cell_length_b   6.49952269
_cell_length_c   6.47654581
_cell_angle_alpha   59.86940765
_cell_angle_beta   59.88679504
_cell_angle_gamma   59.94422531
_symmetry_Int_Tables_number   1
_chemical_formula_structural   Rb2TlPdF6
_chemical_formula_sum   'Rb2 Tl1 Pd1 F6'
_cell_volume   192.33527565
_cell_formula_units_Z   1
loop_
 _symmetry_equiv_pos_site_id
 _symmetry_equiv_pos_as_xyz
  1  'x, y, z'
loop_
 _atom_site_type_symbol
 _atom_site_label
 _atom_site_symmetry_multiplicity
 _atom_site_fract_x
 _atom_site_fract_y
 _atom_site_fract_z
 _atom_site_occupancy
  Rb  Rb0  1  0.47392607  0.59223223  0.15398160  1
  Rb  Rb1  1  0.97480828  0.09068798  0.65305787  1
  Tl  Tl2  1  0.22470708  0.34188798  0.90391320  1
  Pd  Pd3  1  0.72393721  0.84209919  0.40400782  1
  F  F4  1  0.95911294  0.60781962  0.16860785  1
  F  F5  1  0.95856231  0.07707454  0.16878395  1
  F  F6  1  0.95855939  0.60814053  0.63855791  1
  F  F7  1  0.48821756  0.60794508  0.63868111  1
  F  F8  1  0.48829535  0.07674247  0.63874316  1
  F  F9  1  0.48831925  0.07784186  0.16890144  1
