# generated using pymatgen
data_Rb2TbCuCl6
_symmetry_space_group_name_H-M   'P 1'
_cell_length_a   7.37747431
_cell_length_b   7.39186144
_cell_length_c   7.38590622
_cell_angle_alpha   59.98157120
_cell_angle_beta   59.78758240
_cell_angle_gamma   59.74230957
_symmetry_Int_Tables_number   1
_chemical_formula_structural   Rb2TbCuCl6
_chemical_formula_sum   'Rb2 Tb1 Cu1 Cl6'
_cell_volume   283.75135163
_cell_formula_units_Z   1
loop_
 _symmetry_equiv_pos_site_id
 _symmetry_equiv_pos_as_xyz
  1  'x, y, z'
loop_
 _atom_site_type_symbol
 _atom_site_label
 _atom_site_symmetry_multiplicity
 _atom_site_fract_x
 _atom_site_fract_y
 _atom_site_fract_z
 _atom_site_occupancy
  Rb  Rb0  1  0.87034774  0.59110117  0.90513873  1
  Rb  Rb1  1  0.36983016  0.09135028  0.40487313  1
  Tb  Tb2  1  0.12006983  0.84125572  0.15485811  1
  Cu  Cu3  1  0.62005085  0.34103444  0.65505111  1
  Cl  Cl4  1  0.86610264  0.09588876  0.40852305  1
  Cl  Cl5  1  0.37431279  0.58767182  0.90028334  1
  Cl  Cl6  1  0.86666417  0.09505209  0.90015918  1
  Cl  Cl7  1  0.86561817  0.58740908  0.40844014  1
  Cl  Cl8  1  0.37429851  0.58782995  0.40898117  1
  Cl  Cl9  1  0.37411398  0.09542960  0.90001726  1
