# generated using pymatgen
data_Rb2UF6
_symmetry_space_group_name_H-M   'P 1'
_cell_length_a   6.60502815
_cell_length_b   7.46404409
_cell_length_c   8.07543755
_cell_angle_alpha   115.47949982
_cell_angle_beta   89.95996857
_cell_angle_gamma   89.96112823
_symmetry_Int_Tables_number   1
_chemical_formula_structural   Rb2UF6
_chemical_formula_sum   'Rb4 U2 F12'
_cell_volume   359.39903093
_cell_formula_units_Z   2
loop_
 _symmetry_equiv_pos_site_id
 _symmetry_equiv_pos_as_xyz
  1  'x, y, z'
loop_
 _atom_site_type_symbol
 _atom_site_label
 _atom_site_symmetry_multiplicity
 _atom_site_fract_x
 _atom_site_fract_y
 _atom_site_fract_z
 _atom_site_occupancy
  Rb  Rb0  1  0.28542829  0.74249053  0.94103175  1
  Rb  Rb1  1  0.78557307  0.56963575  0.57744777  1
  Rb  Rb2  1  0.28699461  0.39467242  0.20403570  1
  Rb  Rb3  1  0.28621373  0.04738245  0.57724506  1
  U  U4  1  0.78818548  0.20257922  0.88889033  1
  U  U5  1  0.78575259  0.97843641  0.27651119  1
  F  F6  1  0.01191842  0.18208887  0.36734152  1
  F  F7  1  0.78823119  0.32326967  0.18424547  1
  F  F8  1  0.78776187  0.00123505  0.57578593  1
  F  F9  1  0.52614206  0.06912315  0.91460854  1
  F  F10  1  0.28761780  0.66041172  0.58222002  1
  F  F11  1  0.78784448  0.85011613  0.97992939  1
  F  F12  1  0.54489273  0.17759070  0.36119032  1
  F  F13  1  0.56179839  0.39047608  0.84275585  1
  F  F14  1  0.54971749  0.76191711  0.25070176  1
  F  F15  1  0.01347172  0.38994899  0.84173334  1
  F  F16  1  0.01376253  0.76053810  0.25023103  1
  F  F17  1  0.03496243  0.06783481  0.91598922  1
