# generated using pymatgen
data_Rb2WCl6
_symmetry_space_group_name_H-M   'P 1'
_cell_length_a   7.27046680
_cell_length_b   7.29061604
_cell_length_c   7.27718496
_cell_angle_alpha   59.99208069
_cell_angle_beta   59.76582336
_cell_angle_gamma   59.61478424
_symmetry_Int_Tables_number   1
_chemical_formula_structural   Rb2WCl6
_chemical_formula_sum   'Rb2 W1 Cl6'
_cell_volume   271.45558303
_cell_formula_units_Z   1
loop_
 _symmetry_equiv_pos_site_id
 _symmetry_equiv_pos_as_xyz
  1  'x, y, z'
loop_
 _atom_site_type_symbol
 _atom_site_label
 _atom_site_symmetry_multiplicity
 _atom_site_fract_x
 _atom_site_fract_y
 _atom_site_fract_z
 _atom_site_occupancy
  Rb  Rb0  1  0.70286870  0.38691279  0.44635218  1
  Rb  Rb1  1  0.20303626  0.88759166  0.94652921  1
  W  W2  1  0.95318484  0.63732541  0.69689786  1
  Cl  Cl3  1  0.18721090  0.87048542  0.46371570  1
  Cl  Cl4  1  0.18758774  0.40540943  0.92913413  1
  Cl  Cl5  1  0.71997988  0.87066686  0.92914385  1
  Cl  Cl6  1  0.18805306  0.40478417  0.46346647  1
  Cl  Cl7  1  0.72034758  0.86994016  0.46343207  1
  Cl  Cl8  1  0.72015876  0.40553072  0.92977631  1
