# generated using pymatgen
data_Rb2YTlI6
_symmetry_space_group_name_H-M   'P 1'
_cell_length_a   9.00618267
_cell_length_b   9.02892017
_cell_length_c   9.00778389
_cell_angle_alpha   60.02614212
_cell_angle_beta   59.75194168
_cell_angle_gamma   60.03739929
_symmetry_Int_Tables_number   1
_chemical_formula_structural   Rb2YTlI6
_chemical_formula_sum   'Rb2 Y1 Tl1 I6'
_cell_volume   517.20931271
_cell_formula_units_Z   1
loop_
 _symmetry_equiv_pos_site_id
 _symmetry_equiv_pos_as_xyz
  1  'x, y, z'
loop_
 _atom_site_type_symbol
 _atom_site_label
 _atom_site_symmetry_multiplicity
 _atom_site_fract_x
 _atom_site_fract_y
 _atom_site_fract_z
 _atom_site_occupancy
  Rb  Rb0  1  0.64465135  0.89412087  0.80050379  1
  Rb  Rb1  1  0.14451866  0.39379746  0.30121106  1
  Y  Y2  1  0.39446053  0.64431834  0.55074728  1
  Tl  Tl3  1  0.89460176  0.14507534  0.04925290  1
  I  I4  1  0.15818202  0.40810770  0.78543419  1
  I  I5  1  0.63125098  0.40891850  0.78518695  1
  I  I6  1  0.15759459  0.87972724  0.31325960  1
  I  I7  1  0.15824507  0.87997341  0.78520495  1
  I  I8  1  0.63132370  0.40861678  0.31451803  1
  I  I9  1  0.63143724  0.87983918  0.31399047  1
