# generated using pymatgen
data_Rb2ZrF6
_symmetry_space_group_name_H-M   'P 1'
_cell_length_a   4.04671192
_cell_length_b   6.65498400
_cell_length_c   6.68813276
_cell_angle_alpha   119.75018311
_cell_angle_beta   90.06786346
_cell_angle_gamma   89.90078735
_symmetry_Int_Tables_number   1
_chemical_formula_structural   Rb2ZrF6
_chemical_formula_sum   'Rb2 Zr1 F6'
_cell_volume   156.37664940
_cell_formula_units_Z   1
loop_
 _symmetry_equiv_pos_site_id
 _symmetry_equiv_pos_as_xyz
  1  'x, y, z'
loop_
 _atom_site_type_symbol
 _atom_site_label
 _atom_site_symmetry_multiplicity
 _atom_site_fract_x
 _atom_site_fract_y
 _atom_site_fract_z
 _atom_site_occupancy
  Rb  Rb0  1  0.39182091  0.77214944  0.12960811  1
  Rb  Rb1  1  0.88909936  0.43786186  0.46066871  1
  Zr  Zr2  1  0.88937384  0.10824108  0.80110574  1
  F  F3  1  0.89020282  0.94537592  0.47853583  1
  F  F4  1  0.38712299  0.23430157  0.08873600  1
  F  F5  1  0.38810140  0.81245780  0.66550499  1
  F  F6  1  0.88964915  0.94833779  0.96542770  1
  F  F7  1  0.38701221  0.23380743  0.66548687  1
  F  F8  1  0.88943088  0.43396312  0.96577150  1
