# generated using pymatgen
data_Rb3GdF6
_symmetry_space_group_name_H-M   'P 1'
_cell_length_a   6.91574860
_cell_length_b   6.92467880
_cell_length_c   6.90421724
_cell_angle_alpha   59.82719421
_cell_angle_beta   59.79163361
_cell_angle_gamma   60.07625961
_symmetry_Int_Tables_number   1
_chemical_formula_structural   Rb3GdF6
_chemical_formula_sum   'Rb3 Gd1 F6'
_cell_volume   233.25411514
_cell_formula_units_Z   1
loop_
 _symmetry_equiv_pos_site_id
 _symmetry_equiv_pos_as_xyz
  1  'x, y, z'
loop_
 _atom_site_type_symbol
 _atom_site_label
 _atom_site_symmetry_multiplicity
 _atom_site_fract_x
 _atom_site_fract_y
 _atom_site_fract_z
 _atom_site_occupancy
  Rb  Rb0  1  0.61136949  0.13698521  0.47946051  1
  Rb  Rb1  1  0.36081368  0.88674808  0.22882175  1
  Rb  Rb2  1  0.11122255  0.63697714  0.97934222  1
  Gd  Gd3  1  0.86101556  0.38732943  0.72909743  1
  F  F4  1  0.63342351  0.16016862  0.95599693  1
  F  F5  1  0.63361341  0.61568516  0.95555711  1
  F  F6  1  0.08744409  0.15974507  0.95564467  1
  F  F7  1  0.63368446  0.61604834  0.50134665  1
  F  F8  1  0.08728530  0.15917967  0.50151235  1
  F  F9  1  0.08758394  0.61570591  0.50070196  1
