# generated using pymatgen
data_Rb3HoF6
_symmetry_space_group_name_H-M   'P 1'
_cell_length_a   6.83593845
_cell_length_b   6.84454966
_cell_length_c   6.83459282
_cell_angle_alpha   59.83630371
_cell_angle_beta   59.60492325
_cell_angle_gamma   59.92072296
_symmetry_Int_Tables_number   1
_chemical_formula_structural   Rb3HoF6
_chemical_formula_sum   'Rb3 Ho1 F6'
_cell_volume   225.02537946
_cell_formula_units_Z   1
loop_
 _symmetry_equiv_pos_site_id
 _symmetry_equiv_pos_as_xyz
  1  'x, y, z'
loop_
 _atom_site_type_symbol
 _atom_site_label
 _atom_site_symmetry_multiplicity
 _atom_site_fract_x
 _atom_site_fract_y
 _atom_site_fract_z
 _atom_site_occupancy
  Rb  Rb0  1  0.23136336  0.13380970  0.00937290  1
  Rb  Rb1  1  0.98135781  0.88323838  0.76036119  1
  Rb  Rb2  1  0.48095074  0.38222879  0.26015753  1
  Ho  Ho3  1  0.73197812  0.63369393  0.50993097  1
  F  F4  1  0.50818342  0.85701287  0.28625572  1
  F  F5  1  0.95314640  0.85683316  0.28670707  1
  F  F6  1  0.50799942  0.41008988  0.73352331  1
  F  F7  1  0.95260441  0.40902165  0.73347908  1
  F  F8  1  0.50797182  0.85695070  0.73351914  1
  F  F9  1  0.95253438  0.40900382  0.28622839  1
