# generated using pymatgen
data_Rb3SbF6
_symmetry_space_group_name_H-M   'P 1'
_cell_length_a   6.86997318
_cell_length_b   6.89612532
_cell_length_c   6.87739563
_cell_angle_alpha   59.81685638
_cell_angle_beta   59.78845215
_cell_angle_gamma   59.89864349
_symmetry_Int_Tables_number   1
_chemical_formula_structural   Rb3SbF6
_chemical_formula_sum   'Rb3 Sb1 F6'
_cell_volume   229.52788569
_cell_formula_units_Z   1
loop_
 _symmetry_equiv_pos_site_id
 _symmetry_equiv_pos_as_xyz
  1  'x, y, z'
loop_
 _atom_site_type_symbol
 _atom_site_label
 _atom_site_symmetry_multiplicity
 _atom_site_fract_x
 _atom_site_fract_y
 _atom_site_fract_z
 _atom_site_occupancy
  Rb  Rb0  1  0.05479376  0.14202976  0.98899329  1
  Rb  Rb1  1  0.30352920  0.39156669  0.23901220  1
  Rb  Rb2  1  0.80381829  0.89164793  0.73900926  1
  Sb  Sb3  1  0.55369157  0.64220041  0.48910791  1
  F  F4  1  0.32620403  0.87113231  0.71572453  1
  F  F5  1  0.78048366  0.41603070  0.71576482  1
  F  F6  1  0.32660723  0.87110752  0.26010597  1
  F  F7  1  0.32628661  0.41578671  0.71537822  1
  F  F8  1  0.78023410  0.41534045  0.26045007  1
  F  F9  1  0.78056717  0.87101930  0.26016557  1
