# generated using pymatgen
data_Rb
_symmetry_space_group_name_H-M   'P 1'
_cell_length_a   8.29836750
_cell_length_b   8.27033615
_cell_length_c   10.50775814
_cell_angle_alpha   89.85928345
_cell_angle_beta   89.95355988
_cell_angle_gamma   108.05868530
_symmetry_Int_Tables_number   1
_chemical_formula_structural   Rb
_chemical_formula_sum   Rb8
_cell_volume   685.62324185
_cell_formula_units_Z   8
loop_
 _symmetry_equiv_pos_site_id
 _symmetry_equiv_pos_as_xyz
  1  'x, y, z'
loop_
 _atom_site_type_symbol
 _atom_site_label
 _atom_site_symmetry_multiplicity
 _atom_site_fract_x
 _atom_site_fract_y
 _atom_site_fract_z
 _atom_site_occupancy
  Rb  Rb0  1  0.26865968  0.52724838  0.64759421  1
  Rb  Rb1  1  0.76849061  0.52984661  0.89397621  1
  Rb  Rb2  1  0.76802200  0.53187531  0.39380804  1
  Rb  Rb3  1  0.76842797  0.03108348  0.64412123  1
  Rb  Rb4  1  0.26885700  0.02562861  0.90306425  1
  Rb  Rb5  1  0.26913980  0.03085053  0.40003222  1
  Rb  Rb6  1  0.76792026  0.03117785  0.14706355  1
  Rb  Rb7  1  0.26881912  0.52891505  0.14665462  1
