# generated using pymatgen
data_Rb
_symmetry_space_group_name_H-M   'P 1'
_cell_length_a   8.62980270
_cell_length_b   8.60524654
_cell_length_c   9.86239815
_cell_angle_alpha   89.98232269
_cell_angle_beta   90.24094391
_cell_angle_gamma   90.08477783
_symmetry_Int_Tables_number   1
_chemical_formula_structural   Rb
_chemical_formula_sum   Rb8
_cell_volume   732.38995682
_cell_formula_units_Z   8
loop_
 _symmetry_equiv_pos_site_id
 _symmetry_equiv_pos_as_xyz
  1  'x, y, z'
loop_
 _atom_site_type_symbol
 _atom_site_label
 _atom_site_symmetry_multiplicity
 _atom_site_fract_x
 _atom_site_fract_y
 _atom_site_fract_z
 _atom_site_occupancy
  Rb  Rb0  1  0.16932623  0.95730448  0.08618276  1
  Rb  Rb1  1  0.41576222  0.45849669  0.83857751  1
  Rb  Rb2  1  0.66971242  0.95874423  0.83813083  1
  Rb  Rb3  1  0.91502637  0.45500556  0.08624770  1
  Rb  Rb4  1  0.66990942  0.95581657  0.33715346  1
  Rb  Rb5  1  0.91460395  0.45714068  0.58603799  1
  Rb  Rb6  1  0.16956368  0.95761663  0.58748662  1
  Rb  Rb7  1  0.41528863  0.45590436  0.33947471  1
