# generated using pymatgen
data_RbBi2
_symmetry_space_group_name_H-M   'P 1'
_cell_length_a   6.84542990
_cell_length_b   6.86947346
_cell_length_c   6.87259150
_cell_angle_alpha   60.18855286
_cell_angle_beta   59.93170547
_cell_angle_gamma   59.83903122
_symmetry_Int_Tables_number   1
_chemical_formula_structural   RbBi2
_chemical_formula_sum   'Rb2 Bi4'
_cell_volume   228.44800342
_cell_formula_units_Z   2
loop_
 _symmetry_equiv_pos_site_id
 _symmetry_equiv_pos_as_xyz
  1  'x, y, z'
loop_
 _atom_site_type_symbol
 _atom_site_label
 _atom_site_symmetry_multiplicity
 _atom_site_fract_x
 _atom_site_fract_y
 _atom_site_fract_z
 _atom_site_occupancy
  Rb  Rb0  1  0.16915216  0.40352148  0.42312935  1
  Rb  Rb1  1  0.41793588  0.65533245  0.67504072  1
  Bi  Bi2  1  0.79458898  0.52828503  0.04750027  1
  Bi  Bi3  1  0.79499263  0.02916218  0.54806453  1
  Bi  Bi4  1  0.29483882  0.02906319  0.04823402  1
  Bi  Bi5  1  0.79461145  0.02910920  0.04798901  1
