# generated using pymatgen
data_RbBr
_symmetry_space_group_name_H-M   'P 1'
_cell_length_a   4.97839594
_cell_length_b   4.97013712
_cell_length_c   4.97030210
_cell_angle_alpha   59.57299805
_cell_angle_beta   59.62787247
_cell_angle_gamma   59.78452682
_symmetry_Int_Tables_number   1
_chemical_formula_structural   RbBr
_chemical_formula_sum   'Rb1 Br1'
_cell_volume   86.29236303
_cell_formula_units_Z   1
loop_
 _symmetry_equiv_pos_site_id
 _symmetry_equiv_pos_as_xyz
  1  'x, y, z'
loop_
 _atom_site_type_symbol
 _atom_site_label
 _atom_site_symmetry_multiplicity
 _atom_site_fract_x
 _atom_site_fract_y
 _atom_site_fract_z
 _atom_site_occupancy
  Rb  Rb0  1  0.13299444  0.72924244  0.56841141  1
  Br  Br1  1  0.63270748  0.22911388  0.06765009  1
