# generated using pymatgen
data_RbCO2
_symmetry_space_group_name_H-M   'P 1'
_cell_length_a   5.88268852
_cell_length_b   6.17656946
_cell_length_c   8.09316635
_cell_angle_alpha   89.85021973
_cell_angle_beta   89.75625610
_cell_angle_gamma   89.90715027
_symmetry_Int_Tables_number   1
_chemical_formula_structural   RbCO2
_chemical_formula_sum   'Rb4 C4 O8'
_cell_volume   294.05981162
_cell_formula_units_Z   4
loop_
 _symmetry_equiv_pos_site_id
 _symmetry_equiv_pos_as_xyz
  1  'x, y, z'
loop_
 _atom_site_type_symbol
 _atom_site_label
 _atom_site_symmetry_multiplicity
 _atom_site_fract_x
 _atom_site_fract_y
 _atom_site_fract_z
 _atom_site_occupancy
  Rb  Rb0  1  0.67190939  0.25585580  0.42535776  1
  Rb  Rb1  1  0.17184708  0.75504065  0.42486492  1
  Rb  Rb2  1  0.17086990  0.75544226  0.92567629  1
  Rb  Rb3  1  0.67307979  0.25605202  0.92518455  1
  C  C4  1  0.17086573  0.25491148  0.67571515  1
  C  C5  1  0.67120826  0.75495052  0.17506586  1
  C  C6  1  0.17123181  0.25486964  0.17562231  1
  C  C7  1  0.67175961  0.75551277  0.67525822  1
  O  O8  1  0.30220178  0.12473173  0.17515275  1
  O  O9  1  0.04335620  0.38755906  0.17433783  1
  O  O10  1  0.80208737  0.88711929  0.17481354  1
  O  O11  1  0.54278356  0.62425393  0.17579015  1
  O  O12  1  0.04322901  0.38636842  0.67428374  1
  O  O13  1  0.54268134  0.62370574  0.67578208  1
  O  O14  1  0.80236018  0.88789707  0.67415613  1
  O  O15  1  0.30212682  0.12504633  0.67537415  1
