# generated using pymatgen
data_RbCuCl3
_symmetry_space_group_name_H-M   'P 1'
_cell_length_a   5.85795832
_cell_length_b   7.03346443
_cell_length_c   7.01759958
_cell_angle_alpha   60.40067291
_cell_angle_beta   89.42655945
_cell_angle_gamma   90.19207764
_symmetry_Int_Tables_number   1
_chemical_formula_structural   RbCuCl3
_chemical_formula_sum   'Rb2 Cu2 Cl6'
_cell_volume   251.38107959
_cell_formula_units_Z   2
loop_
 _symmetry_equiv_pos_site_id
 _symmetry_equiv_pos_as_xyz
  1  'x, y, z'
loop_
 _atom_site_type_symbol
 _atom_site_label
 _atom_site_symmetry_multiplicity
 _atom_site_fract_x
 _atom_site_fract_y
 _atom_site_fract_z
 _atom_site_occupancy
  Rb  Rb0  1  0.73975712  0.51764321  0.31546593  1
  Rb  Rb1  1  0.23996817  0.85205817  0.64712894  1
  Cu  Cu2  1  0.98857075  0.18529409  0.98138767  1
  Cu  Cu3  1  0.48942375  0.18425438  0.98113209  1
  Cl  Cl4  1  0.74072301  0.02579194  0.29629278  1
  Cl  Cl5  1  0.24179755  0.34320003  0.66719562  1
  Cl  Cl6  1  0.74089563  0.02580396  0.82449937  1
  Cl  Cl7  1  0.24164787  0.86769795  0.13983832  1
  Cl  Cl8  1  0.24236208  0.34360370  0.14001943  1
  Cl  Cl9  1  0.74036825  0.49940744  0.82537532  1
