# generated using pymatgen
data_RbCuO2
_symmetry_space_group_name_H-M   'P 1'
_cell_length_a   4.67626143
_cell_length_b   5.09277773
_cell_length_c   5.98360395
_cell_angle_alpha   111.87714386
_cell_angle_beta   90.71051788
_cell_angle_gamma   89.75666046
_symmetry_Int_Tables_number   1
_chemical_formula_structural   RbCuO2
_chemical_formula_sum   'Rb2 Cu2 O4'
_cell_volume   132.22813059
_cell_formula_units_Z   2
loop_
 _symmetry_equiv_pos_site_id
 _symmetry_equiv_pos_as_xyz
  1  'x, y, z'
loop_
 _atom_site_type_symbol
 _atom_site_label
 _atom_site_symmetry_multiplicity
 _atom_site_fract_x
 _atom_site_fract_y
 _atom_site_fract_z
 _atom_site_occupancy
  Rb  Rb0  1  0.01187888  0.08452453  0.09550479  1
  Rb  Rb1  1  0.51251096  0.58442527  0.09600165  1
  Cu  Cu2  1  0.21562389  0.63755912  0.59724087  1
  Cu  Cu3  1  0.71346754  0.13703482  0.59707856  1
  O  O4  1  0.46892640  0.31375000  0.44362035  1
  O  O5  1  0.96828669  0.43789852  0.76221055  1
  O  O6  1  0.96802461  0.81589592  0.44276747  1
  O  O7  1  0.46790323  0.94234353  0.76183093  1
