# generated using pymatgen
data_RbLaMnWO6
_symmetry_space_group_name_H-M   'P 1'
_cell_length_a   5.84181833
_cell_length_b   5.89666748
_cell_length_c   8.09777451
_cell_angle_alpha   89.69149017
_cell_angle_beta   89.92673492
_cell_angle_gamma   89.99428558
_symmetry_Int_Tables_number   1
_chemical_formula_structural   RbLaMnWO6
_chemical_formula_sum   'Rb2 La2 Mn2 W2 O12'
_cell_volume   278.94187236
_cell_formula_units_Z   2
loop_
 _symmetry_equiv_pos_site_id
 _symmetry_equiv_pos_as_xyz
  1  'x, y, z'
loop_
 _atom_site_type_symbol
 _atom_site_label
 _atom_site_symmetry_multiplicity
 _atom_site_fract_x
 _atom_site_fract_y
 _atom_site_fract_z
 _atom_site_occupancy
  Rb  Rb0  1  0.58576626  0.53852773  0.17130400  1
  Rb  Rb1  1  0.60819131  0.54204357  0.67151618  1
  La  La2  1  0.06286683  0.04145123  0.17161633  1
  La  La3  1  0.13334033  0.03741758  0.67340189  1
  Mn  Mn4  1  0.60129863  0.03983250  0.42050520  1
  Mn  Mn5  1  0.10107896  0.53981096  0.92102480  1
  W  W6  1  0.10031112  0.53885025  0.42080116  1
  W  W7  1  0.60074508  0.03859820  0.92050898  1
  O  O8  1  0.33060810  0.76856536  0.45598340  1
  O  O9  1  0.09829146  0.45953259  0.66173607  1
  O  O10  1  0.32849559  0.23793995  0.95651048  1
  O  O11  1  0.29277846  0.26263726  0.38765129  1
  O  O12  1  0.63682264  0.99612033  0.16118728  1
  O  O13  1  0.89952928  0.81684643  0.45767441  1
  O  O14  1  0.86457306  0.31065905  0.38894951  1
  O  O15  1  0.83431751  0.27153593  0.95429313  1
  O  O16  1  0.36522210  0.80953419  0.88969976  1
  O  O17  1  0.56455064  0.09008921  0.68256032  1
  O  O18  1  0.86606175  0.83650029  0.88328612  1
  O  O19  1  0.09308838  0.61339825  0.18226407  1
