# generated using pymatgen
data_RbSeBr3
_symmetry_space_group_name_H-M   'P 1'
_cell_length_a   5.47555256
_cell_length_b   5.44524050
_cell_length_c   5.51583815
_cell_angle_alpha   89.81893921
_cell_angle_beta   89.76912689
_cell_angle_gamma   90.12613678
_symmetry_Int_Tables_number   1
_chemical_formula_structural   RbSeBr3
_chemical_formula_sum   'Rb1 Se1 Br3'
_cell_volume   164.45601894
_cell_formula_units_Z   1
loop_
 _symmetry_equiv_pos_site_id
 _symmetry_equiv_pos_as_xyz
  1  'x, y, z'
loop_
 _atom_site_type_symbol
 _atom_site_label
 _atom_site_symmetry_multiplicity
 _atom_site_fract_x
 _atom_site_fract_y
 _atom_site_fract_z
 _atom_site_occupancy
  Rb  Rb0  1  0.47162908  0.74158788  0.87118644  1
  Se  Se1  1  0.97118902  0.24057308  0.37109646  1
  Br  Br2  1  0.97174323  0.24126326  0.87052184  1
  Br  Br3  1  0.47173685  0.24136843  0.37008420  1
  Br  Br4  1  0.97183883  0.74100506  0.37119949  1
