# generated using pymatgen
data_RbYBeF6
_symmetry_space_group_name_H-M   'P 1'
_cell_length_a   6.15581942
_cell_length_b   6.63827562
_cell_length_c   6.60706472
_cell_angle_alpha   111.68148804
_cell_angle_beta   90.05549622
_cell_angle_gamma   90.11563873
_symmetry_Int_Tables_number   1
_chemical_formula_structural   RbYBeF6
_chemical_formula_sum   'Rb2 Y2 Be2 F12'
_cell_volume   250.88898089
_cell_formula_units_Z   2
loop_
 _symmetry_equiv_pos_site_id
 _symmetry_equiv_pos_as_xyz
  1  'x, y, z'
loop_
 _atom_site_type_symbol
 _atom_site_label
 _atom_site_symmetry_multiplicity
 _atom_site_fract_x
 _atom_site_fract_y
 _atom_site_fract_z
 _atom_site_occupancy
  Rb  Rb0  1  0.57138044  0.18844460  0.75137210  1
  Rb  Rb1  1  0.07110425  0.18315077  0.25150037  1
  Y  Y2  1  0.57100391  0.58097625  0.33137631  1
  Y  Y3  1  0.07170761  0.58116263  0.83224916  1
  Be  Be4  1  0.57083112  0.95775956  0.20770302  1
  Be  Be5  1  0.07058353  0.95787609  0.70766574  1
  F  F6  1  0.24530201  0.90845770  0.85036325  1
  F  F7  1  0.85217750  0.48150879  0.08395005  1
  F  F8  1  0.79164714  0.48134285  0.58410239  1
  F  F9  1  0.07110729  0.19190527  0.70116454  1
  F  F10  1  0.38800356  0.90679568  0.34299567  1
  F  F11  1  0.29147643  0.48146391  0.08415246  1
  F  F12  1  0.35298055  0.48204759  0.58380753  1
  F  F13  1  0.88816911  0.90749365  0.84230936  1
  F  F14  1  0.07150393  0.73428047  0.51872861  1
  F  F15  1  0.57163316  0.19132254  0.20103136  1
  F  F16  1  0.74542505  0.90742880  0.34946388  1
  F  F17  1  0.57169253  0.73331833  0.01877604  1
