# generated using pymatgen
data_ReS2
_symmetry_space_group_name_H-M   'P 1'
_cell_length_a   6.70663404
_cell_length_b   6.71170235
_cell_length_c   7.11708879
_cell_angle_alpha   61.68046951
_cell_angle_beta   61.79712677
_cell_angle_gamma   59.70779037
_symmetry_Int_Tables_number   1
_chemical_formula_structural   ReS2
_chemical_formula_sum   'Re4 S8'
_cell_volume   231.75880369
_cell_formula_units_Z   4
loop_
 _symmetry_equiv_pos_site_id
 _symmetry_equiv_pos_as_xyz
  1  'x, y, z'
loop_
 _atom_site_type_symbol
 _atom_site_label
 _atom_site_symmetry_multiplicity
 _atom_site_fract_x
 _atom_site_fract_y
 _atom_site_fract_z
 _atom_site_occupancy
  Re  Re0  1  0.57676673  0.84909344  0.42242298  1
  Re  Re1  1  0.99829370  0.84874797  0.42259389  1
  Re  Re2  1  0.57710803  0.26900938  0.42214000  1
  Re  Re3  1  0.99944502  0.27178332  0.42261738  1
  S  S4  1  0.80023038  0.06748405  0.14582363  1
  S  S5  1  0.77401221  0.03886406  0.69275647  1
  S  S6  1  0.30409816  0.04112264  0.17355171  1
  S  S7  1  0.27468836  0.54365122  0.19695742  1
  S  S8  1  0.27526253  0.06399488  0.66476941  1
  S  S9  1  0.80067992  0.53995210  0.66627330  1
  S  S10  1  0.77372557  0.56934178  0.17030348  1
  S  S11  1  0.30059859  0.56775767  0.64468050  1
