# generated using pymatgen
data_RhPb
_symmetry_space_group_name_H-M   'P 1'
_cell_length_a   4.68493652
_cell_length_b   4.68470192
_cell_length_c   6.62961674
_cell_angle_alpha   90.16223145
_cell_angle_beta   89.97800446
_cell_angle_gamma   119.81904602
_symmetry_Int_Tables_number   1
_chemical_formula_structural   RhPb
_chemical_formula_sum   'Rh3 Pb3'
_cell_volume   126.23846281
_cell_formula_units_Z   3
loop_
 _symmetry_equiv_pos_site_id
 _symmetry_equiv_pos_as_xyz
  1  'x, y, z'
loop_
 _atom_site_type_symbol
 _atom_site_label
 _atom_site_symmetry_multiplicity
 _atom_site_fract_x
 _atom_site_fract_y
 _atom_site_fract_z
 _atom_site_occupancy
  Rh  Rh0  1  0.38422698  0.36871105  0.03877389  1
  Rh  Rh1  1  0.71788871  0.03582815  0.16522658  1
  Rh  Rh2  1  0.71750259  0.03498599  0.72879642  1
  Pb  Pb3  1  0.38411057  0.36910358  0.58306003  1
  Pb  Pb4  1  0.05087340  0.70265549  0.34739661  1
  Pb  Pb5  1  0.05078883  0.70280731  0.90201557  1
