# generated using pymatgen
data_SbAsIr
_symmetry_space_group_name_H-M   'P 1'
_cell_length_a   6.25794697
_cell_length_b   6.22955656
_cell_length_c   6.23799944
_cell_angle_alpha   90.17484283
_cell_angle_beta   89.96729279
_cell_angle_gamma   91.40898132
_symmetry_Int_Tables_number   1
_chemical_formula_structural   SbAsIr
_chemical_formula_sum   'Sb4 As4 Ir4'
_cell_volume   243.10894454
_cell_formula_units_Z   4
loop_
 _symmetry_equiv_pos_site_id
 _symmetry_equiv_pos_as_xyz
  1  'x, y, z'
loop_
 _atom_site_type_symbol
 _atom_site_label
 _atom_site_symmetry_multiplicity
 _atom_site_fract_x
 _atom_site_fract_y
 _atom_site_fract_z
 _atom_site_occupancy
  Sb  Sb0  1  0.01292982  0.94173902  0.79956329  1
  Sb  Sb1  1  0.01264855  0.44160995  0.04521531  1
  Sb  Sb2  1  0.51333666  0.44073996  0.80014849  1
  Sb  Sb3  1  0.28120247  0.17548077  0.30224344  1
  As  As4  1  0.78029704  0.17499809  0.54466397  1
  As  As5  1  0.78021532  0.67617261  0.30193076  1
  As  As6  1  0.51263326  0.94116545  0.04543184  1
  As  As7  1  0.28039783  0.67499393  0.54511440  1
  Ir  Ir8  1  0.90707487  0.55039704  0.65689194  1
  Ir  Ir9  1  0.88244164  0.05016689  0.17441817  1
  Ir  Ir10  1  0.41711357  0.03947057  0.67466450  1
  Ir  Ir11  1  0.40654692  0.57425129  0.17479151  1
