# generated using pymatgen
data_SbP(OF3)2
_symmetry_space_group_name_H-M   'P 1'
_cell_length_a   5.32316208
_cell_length_b   7.49734306
_cell_length_c   8.49869061
_cell_angle_alpha   104.58055878
_cell_angle_beta   101.34993744
_cell_angle_gamma   98.43688965
_symmetry_Int_Tables_number   1
_chemical_formula_structural   SbP(OF3)2
_chemical_formula_sum   'Sb2 P2 O4 F12'
_cell_volume   314.87649326
_cell_formula_units_Z   2
loop_
 _symmetry_equiv_pos_site_id
 _symmetry_equiv_pos_as_xyz
  1  'x, y, z'
loop_
 _atom_site_type_symbol
 _atom_site_label
 _atom_site_symmetry_multiplicity
 _atom_site_fract_x
 _atom_site_fract_y
 _atom_site_fract_z
 _atom_site_occupancy
  Sb  Sb0  1  0.39469042  0.22656514  0.67476737  1
  Sb  Sb1  1  0.96068895  0.16881575  0.01055811  1
  P  P2  1  0.11535589  0.67098278  0.58318472  1
  P  P3  1  0.81402028  0.85740405  0.19618885  1
  O  O4  1  0.04256866  0.77065963  0.23691581  1
  O  O5  1  0.65770102  0.09726894  0.79277587  1
  O  O6  1  0.61426026  0.78395015  0.24532688  1
  O  O7  1  0.87105441  0.06981935  0.21878819  1
  F  F8  1  0.16837806  0.69737726  0.76745737  1
  F  F9  1  0.43003744  0.16190714  0.46312425  1
  F  F10  1  0.75992161  0.36078191  0.07335343  1
  F  F11  1  0.18890226  0.28059584  0.85337991  1
  F  F12  1  0.25463215  0.01994480  0.03868735  1
  F  F13  1  0.09304190  0.93204916  0.61755872  1
  F  F14  1  0.74066615  0.83012444  0.99656272  1
  F  F15  1  0.63947672  0.47001562  0.75582469  1
  F  F16  1  0.35659671  0.70298564  0.53655857  1
  F  F17  1  0.11205363  0.41126692  0.55993623  1
  F  F18  1  0.25651833  0.35840210  0.18302691  1
  F  F19  1  0.85430306  0.62386233  0.49837258  1
