# generated using pymatgen
data_SbPb4
_symmetry_space_group_name_H-M   'P 1'
_cell_length_a   4.25738239
_cell_length_b   4.25560760
_cell_length_c   11.12905121
_cell_angle_alpha   89.80849457
_cell_angle_beta   90.02609253
_cell_angle_gamma   120.91841125
_symmetry_Int_Tables_number   1
_chemical_formula_structural   SbPb4
_chemical_formula_sum   'Sb1 Pb4'
_cell_volume   172.98007006
_cell_formula_units_Z   1
loop_
 _symmetry_equiv_pos_site_id
 _symmetry_equiv_pos_as_xyz
  1  'x, y, z'
loop_
 _atom_site_type_symbol
 _atom_site_label
 _atom_site_symmetry_multiplicity
 _atom_site_fract_x
 _atom_site_fract_y
 _atom_site_fract_z
 _atom_site_occupancy
  Sb  Sb0  1  0.44120228  0.02466985  0.95854002  1
  Pb  Pb1  1  0.44133139  0.02424137  0.55385518  1
  Pb  Pb2  1  0.10837375  0.35725087  0.14728618  1
  Pb  Pb3  1  0.77432072  0.69129908  0.35375246  1
  Pb  Pb4  1  0.77453309  0.69102776  0.77622914  1
