# generated using pymatgen
data_Sc(FeGe)6
_symmetry_space_group_name_H-M   'P 1'
_cell_length_a   5.13147211
_cell_length_b   5.12338305
_cell_length_c   8.10133171
_cell_angle_alpha   89.96022797
_cell_angle_beta   89.97498322
_cell_angle_gamma   120.00073242
_symmetry_Int_Tables_number   1
_chemical_formula_structural   Sc(FeGe)6
_chemical_formula_sum   'Sc1 Fe6 Ge6'
_cell_volume   184.45157093
_cell_formula_units_Z   1
loop_
 _symmetry_equiv_pos_site_id
 _symmetry_equiv_pos_as_xyz
  1  'x, y, z'
loop_
 _atom_site_type_symbol
 _atom_site_label
 _atom_site_symmetry_multiplicity
 _atom_site_fract_x
 _atom_site_fract_y
 _atom_site_fract_z
 _atom_site_occupancy
  Sc  Sc0  1  0.08758889  0.66982567  0.46311536  1
  Fe  Fe1  1  0.08823057  0.17028899  0.21448953  1
  Fe  Fe2  1  0.58824217  0.17034243  0.21472317  1
  Fe  Fe3  1  0.58879191  0.17028584  0.71411067  1
  Fe  Fe4  1  0.58890253  0.67004687  0.71359104  1
  Fe  Fe5  1  0.58833665  0.66983098  0.21462326  1
  Fe  Fe6  1  0.08808132  0.17010708  0.71393877  1
  Ge  Ge7  1  0.08748338  0.66997206  0.80251819  1
  Ge  Ge8  1  0.42030531  0.33619782  0.46414679  1
  Ge  Ge9  1  0.75462252  0.00274498  0.96370518  1
  Ge  Ge10  1  0.08734484  0.66960162  0.11956748  1
  Ge  Ge11  1  0.75460511  0.00278032  0.46460816  1
  Ge  Ge12  1  0.42022696  0.33647338  0.96369016  1
