# generated using pymatgen
data_Sc2CuPd
_symmetry_space_group_name_H-M   'P 1'
_cell_length_a   4.62745667
_cell_length_b   4.62831783
_cell_length_c   4.60937405
_cell_angle_alpha   59.49739075
_cell_angle_beta   59.83186340
_cell_angle_gamma   59.92018890
_symmetry_Int_Tables_number   1
_chemical_formula_structural   Sc2CuPd
_chemical_formula_sum   'Sc2 Cu1 Pd1'
_cell_volume   69.40726173
_cell_formula_units_Z   1
loop_
 _symmetry_equiv_pos_site_id
 _symmetry_equiv_pos_as_xyz
  1  'x, y, z'
loop_
 _atom_site_type_symbol
 _atom_site_label
 _atom_site_symmetry_multiplicity
 _atom_site_fract_x
 _atom_site_fract_y
 _atom_site_fract_z
 _atom_site_occupancy
  Sc  Sc0  1  0.87869292  0.11079445  0.24601552  1
  Sc  Sc1  1  0.37872106  0.61097872  0.74625432  1
  Cu  Cu2  1  0.12853833  0.36087126  0.49621060  1
  Pd  Pd3  1  0.62866426  0.86040217  0.99622732  1
