# generated using pymatgen
data_Sc2GaCu
_symmetry_space_group_name_H-M   'P 1'
_cell_length_a   4.71495056
_cell_length_b   4.71247530
_cell_length_c   4.70580959
_cell_angle_alpha   59.85851288
_cell_angle_beta   60.06152725
_cell_angle_gamma   59.91782761
_symmetry_Int_Tables_number   1
_chemical_formula_structural   Sc2GaCu
_chemical_formula_sum   'Sc2 Ga1 Cu1'
_cell_volume   73.84312005
_cell_formula_units_Z   1
loop_
 _symmetry_equiv_pos_site_id
 _symmetry_equiv_pos_as_xyz
  1  'x, y, z'
loop_
 _atom_site_type_symbol
 _atom_site_label
 _atom_site_symmetry_multiplicity
 _atom_site_fract_x
 _atom_site_fract_y
 _atom_site_fract_z
 _atom_site_occupancy
  Sc  Sc0  1  0.15715699  0.01220484  0.63080186  1
  Sc  Sc1  1  0.65709889  0.51236504  0.13081671  1
  Ga  Ga2  1  0.90670651  0.76245576  0.38136172  1
  Cu  Cu3  1  0.40680730  0.26231971  0.88104534  1
