# generated using pymatgen
data_Sc2Si2O7
_symmetry_space_group_name_H-M   'P 1'
_cell_length_a   4.70683384
_cell_length_b   5.50783348
_cell_length_c   5.48255396
_cell_angle_alpha   107.24880219
_cell_angle_beta   97.84936523
_cell_angle_gamma   98.98543549
_symmetry_Int_Tables_number   1
_chemical_formula_structural   Sc2Si2O7
_chemical_formula_sum   'Sc2 Si2 O7'
_cell_volume   131.53038946
_cell_formula_units_Z   1
loop_
 _symmetry_equiv_pos_site_id
 _symmetry_equiv_pos_as_xyz
  1  'x, y, z'
loop_
 _atom_site_type_symbol
 _atom_site_label
 _atom_site_symmetry_multiplicity
 _atom_site_fract_x
 _atom_site_fract_y
 _atom_site_fract_z
 _atom_site_occupancy
  Sc  Sc0  1  0.18294579  0.04248630  0.47006920  1
  Sc  Sc1  1  0.18309392  0.66406119  0.84581029  1
  Si  Si2  1  0.78045928  0.13599561  0.93994272  1
  Si  Si3  1  0.58940494  0.56737781  0.38019857  1
  O  O4  1  0.39461106  0.42631638  0.54914761  1
  O  O5  1  0.39327234  0.73187190  0.23348507  1
  O  O6  1  0.97184962  0.27994561  0.77572125  1
  O  O7  1  0.68321341  0.35626647  0.16263971  1
  O  O8  1  0.97177839  0.97062784  0.08430649  1
  O  O9  1  0.46846431  0.97037935  0.77313161  1
  O  O10  1  0.90410048  0.73770803  0.54910707  1
