# generated using pymatgen
data_Sc2ZnIn
_symmetry_space_group_name_H-M   'P 1'
_cell_length_a   4.94480133
_cell_length_b   4.93782473
_cell_length_c   4.93157911
_cell_angle_alpha   59.78599930
_cell_angle_beta   59.87725830
_cell_angle_gamma   60.04174042
_symmetry_Int_Tables_number   1
_chemical_formula_structural   Sc2ZnIn
_chemical_formula_sum   'Sc2 Zn1 In1'
_cell_volume   84.95347219
_cell_formula_units_Z   1
loop_
 _symmetry_equiv_pos_site_id
 _symmetry_equiv_pos_as_xyz
  1  'x, y, z'
loop_
 _atom_site_type_symbol
 _atom_site_label
 _atom_site_symmetry_multiplicity
 _atom_site_fract_x
 _atom_site_fract_y
 _atom_site_fract_z
 _atom_site_occupancy
  Sc  Sc0  1  0.17870013  0.66605198  0.55698735  1
  Sc  Sc1  1  0.67834592  0.16595115  0.05701858  1
  Zn  Zn2  1  0.42823988  0.91563821  0.80773234  1
  In  In3  1  0.92864180  0.41525182  0.30781674  1
