# generated using pymatgen
data_Sc2ZnRu
_symmetry_space_group_name_H-M   'P 1'
_cell_length_a   4.65257025
_cell_length_b   4.63720369
_cell_length_c   4.63577604
_cell_angle_alpha   59.80218506
_cell_angle_beta   59.94533920
_cell_angle_gamma   59.96380997
_symmetry_Int_Tables_number   1
_chemical_formula_structural   Sc2ZnRu
_chemical_formula_sum   'Sc2 Zn1 Ru1'
_cell_volume   70.56761263
_cell_formula_units_Z   1
loop_
 _symmetry_equiv_pos_site_id
 _symmetry_equiv_pos_as_xyz
  1  'x, y, z'
loop_
 _atom_site_type_symbol
 _atom_site_label
 _atom_site_symmetry_multiplicity
 _atom_site_fract_x
 _atom_site_fract_y
 _atom_site_fract_z
 _atom_site_occupancy
  Sc  Sc0  1  0.60957378  0.70708859  0.14658123  1
  Sc  Sc1  1  0.10987164  0.20758258  0.64594877  1
  Zn  Zn2  1  0.35940680  0.45724356  0.89598602  1
  Ru  Ru3  1  0.85914391  0.95699829  0.39666766  1
