# generated using pymatgen
data_Sc3Al
_symmetry_space_group_name_H-M   'P 1'
_cell_length_a   4.46035242
_cell_length_b   4.45001221
_cell_length_c   5.56202698
_cell_angle_alpha   114.26226807
_cell_angle_beta   114.26113892
_cell_angle_gamma   89.88243866
_symmetry_Int_Tables_number   1
_chemical_formula_structural   Sc3Al
_chemical_formula_sum   'Sc3 Al1'
_cell_volume   89.89201429
_cell_formula_units_Z   1
loop_
 _symmetry_equiv_pos_site_id
 _symmetry_equiv_pos_as_xyz
  1  'x, y, z'
loop_
 _atom_site_type_symbol
 _atom_site_label
 _atom_site_symmetry_multiplicity
 _atom_site_fract_x
 _atom_site_fract_y
 _atom_site_fract_z
 _atom_site_occupancy
  Sc  Sc0  1  0.31020948  0.59149110  0.21913567  1
  Sc  Sc1  1  0.56094009  0.34170726  0.71883261  1
  Sc  Sc2  1  0.81058788  0.09147608  0.21821457  1
  Al  Al3  1  0.05953261  0.84152329  0.71875036  1
