# generated using pymatgen
data_Sc3FeC4
_symmetry_space_group_name_H-M   'P 1'
_cell_length_a   4.41091108
_cell_length_b   4.47188902
_cell_length_c   5.68585396
_cell_angle_alpha   113.11501312
_cell_angle_beta   113.01152802
_cell_angle_gamma   90.12347412
_symmetry_Int_Tables_number   1
_chemical_formula_structural   Sc3FeC4
_chemical_formula_sum   'Sc3 Fe1 C4'
_cell_volume   93.32409497
_cell_formula_units_Z   1
loop_
 _symmetry_equiv_pos_site_id
 _symmetry_equiv_pos_as_xyz
  1  'x, y, z'
loop_
 _atom_site_type_symbol
 _atom_site_label
 _atom_site_symmetry_multiplicity
 _atom_site_fract_x
 _atom_site_fract_y
 _atom_site_fract_z
 _atom_site_occupancy
  Sc  Sc0  1  0.06536927  0.31630203  0.40861738  1
  Sc  Sc1  1  0.31509912  0.06574998  0.91201144  1
  Sc  Sc2  1  0.54671741  0.80005729  0.37483194  1
  Fe  Fe3  1  0.76568127  0.51444596  0.81412190  1
  C  C4  1  0.56216389  0.31249347  0.40484622  1
  C  C5  1  0.80689943  0.04924742  0.90234482  1
  C  C6  1  0.92403716  0.85959256  0.11567650  1
  C  C7  1  0.30365849  0.55928743  0.89799756  1
