# generated using pymatgen
data_Sc3IrC4
_symmetry_space_group_name_H-M   'P 1'
_cell_length_a   3.48869777
_cell_length_b   4.97139931
_cell_length_c   6.65134144
_cell_angle_alpha   111.31878662
_cell_angle_beta   105.36225128
_cell_angle_gamma   90.21530914
_symmetry_Int_Tables_number   1
_chemical_formula_structural   Sc3IrC4
_chemical_formula_sum   'Sc3 Ir1 C4'
_cell_volume   102.98041571
_cell_formula_units_Z   1
loop_
 _symmetry_equiv_pos_site_id
 _symmetry_equiv_pos_as_xyz
  1  'x, y, z'
loop_
 _atom_site_type_symbol
 _atom_site_label
 _atom_site_symmetry_multiplicity
 _atom_site_fract_x
 _atom_site_fract_y
 _atom_site_fract_z
 _atom_site_occupancy
  Sc  Sc0  1  0.86157346  0.92365378  0.31852365  1
  Sc  Sc1  1  0.36040872  0.41941041  0.31822330  1
  Sc  Sc2  1  0.61526400  0.67381704  0.82817405  1
  Ir  Ir3  1  0.10083338  0.14918254  0.80139560  1
  C  C4  1  0.24171422  0.95401007  0.08095526  1
  C  C5  1  0.24168335  0.67367369  0.08196478  1
  C  C6  1  0.98528993  0.40215841  0.57041788  1
  C  C7  1  0.98508710  0.68013597  0.57119572  1
