# generated using pymatgen
data_Sc3In
_symmetry_space_group_name_H-M   'P 1'
_cell_length_a   5.40963030
_cell_length_b   6.29628277
_cell_length_c   6.32464027
_cell_angle_alpha   119.69148254
_cell_angle_beta   89.90110016
_cell_angle_gamma   89.84754181
_symmetry_Int_Tables_number   1
_chemical_formula_structural   Sc3In
_chemical_formula_sum   'Sc6 In2'
_cell_volume   187.13535079
_cell_formula_units_Z   2
loop_
 _symmetry_equiv_pos_site_id
 _symmetry_equiv_pos_as_xyz
  1  'x, y, z'
loop_
 _atom_site_type_symbol
 _atom_site_label
 _atom_site_symmetry_multiplicity
 _atom_site_fract_x
 _atom_site_fract_y
 _atom_site_fract_z
 _atom_site_occupancy
  Sc  Sc0  1  0.96018803  0.68948048  0.32995096  1
  Sc  Sc1  1  0.46050259  0.52031833  0.49936521  1
  Sc  Sc2  1  0.96044868  0.18342401  0.82237923  1
  Sc  Sc3  1  0.46038705  0.51990426  0.99275023  1
  Sc  Sc4  1  0.95999241  0.18193109  0.33049828  1
  Sc  Sc5  1  0.46037984  0.01390002  0.99152184  1
  In  In6  1  0.95984089  0.68415725  0.82692593  1
  In  In7  1  0.45979816  0.01819776  0.49402109  1
