# generated using pymatgen
data_Sc4Ge6Ru7
_symmetry_space_group_name_H-M   'P 1'
_cell_length_a   7.03712797
_cell_length_b   7.05418062
_cell_length_c   7.05176210
_cell_angle_alpha   109.06202698
_cell_angle_beta   109.53962708
_cell_angle_gamma   109.93723297
_symmetry_Int_Tables_number   1
_chemical_formula_structural   Sc4Ge6Ru7
_chemical_formula_sum   'Sc4 Ge6 Ru7'
_cell_volume   269.04551100
_cell_formula_units_Z   1
loop_
 _symmetry_equiv_pos_site_id
 _symmetry_equiv_pos_as_xyz
  1  'x, y, z'
loop_
 _atom_site_type_symbol
 _atom_site_label
 _atom_site_symmetry_multiplicity
 _atom_site_fract_x
 _atom_site_fract_y
 _atom_site_fract_z
 _atom_site_occupancy
  Sc  Sc0  1  0.04758820  0.92082798  0.56982803  1
  Sc  Sc1  1  0.04631602  0.41301414  0.06982824  1
  Sc  Sc2  1  0.54780591  0.91740012  0.07025325  1
  Sc  Sc3  1  0.54616416  0.41139066  0.56933004  1
  Ge  Ge4  1  0.54114515  0.19507590  0.85294896  1
  Ge  Ge5  1  0.26060927  0.88968128  0.28193685  1
  Ge  Ge6  1  0.54440784  0.62097144  0.28174034  1
  Ge  Ge7  1  0.79750413  0.89050686  0.82170677  1
  Ge  Ge8  1  0.95109266  0.38803363  0.65541643  1
  Ge  Ge9  1  0.04833122  0.17795657  0.32183042  1
  Ru  Ru10  1  0.29995981  0.67221493  0.56964147  1
  Ru  Ru11  1  0.79944944  0.67326945  0.07058547  1
  Ru  Ru12  1  0.29906565  0.17064884  0.07210293  1
  Ru  Ru13  1  0.05070770  0.71618694  0.85236454  1
  Ru  Ru14  1  0.65653342  0.03825010  0.56917042  1
  Ru  Ru15  1  0.79796922  0.41998696  0.32036978  1
  Ru  Ru16  1  0.30187216  0.41866532  0.82354188  1
