# generated using pymatgen
data_ScAgSe2
_symmetry_space_group_name_H-M   'P 1'
_cell_length_a   3.98505354
_cell_length_b   3.97293162
_cell_length_c   5.56482315
_cell_angle_alpha   89.89481354
_cell_angle_beta   89.92074585
_cell_angle_gamma   90.01294708
_symmetry_Int_Tables_number   1
_chemical_formula_structural   ScAgSe2
_chemical_formula_sum   'Sc1 Ag1 Se2'
_cell_volume   88.10396619
_cell_formula_units_Z   1
loop_
 _symmetry_equiv_pos_site_id
 _symmetry_equiv_pos_as_xyz
  1  'x, y, z'
loop_
 _atom_site_type_symbol
 _atom_site_label
 _atom_site_symmetry_multiplicity
 _atom_site_fract_x
 _atom_site_fract_y
 _atom_site_fract_z
 _atom_site_occupancy
  Sc  Sc0  1  0.97948086  0.41659525  0.76319605  1
  Ag  Ag1  1  0.47921529  0.91645265  0.26187345  1
  Se  Se2  1  0.47942740  0.91625863  0.76280975  1
  Se  Se3  1  0.97949708  0.41661254  0.26203734  1
