# generated using pymatgen
data_ScAlCu2
_symmetry_space_group_name_H-M   'P 1'
_cell_length_a   4.39754820
_cell_length_b   4.39107132
_cell_length_c   4.38553381
_cell_angle_alpha   59.79592133
_cell_angle_beta   59.75828934
_cell_angle_gamma   60.19065475
_symmetry_Int_Tables_number   1
_chemical_formula_structural   ScAlCu2
_chemical_formula_sum   'Sc1 Al1 Cu2'
_cell_volume   59.76331136
_cell_formula_units_Z   1
loop_
 _symmetry_equiv_pos_site_id
 _symmetry_equiv_pos_as_xyz
  1  'x, y, z'
loop_
 _atom_site_type_symbol
 _atom_site_label
 _atom_site_symmetry_multiplicity
 _atom_site_fract_x
 _atom_site_fract_y
 _atom_site_fract_z
 _atom_site_occupancy
  Sc  Sc0  1  0.50920826  0.12641083  0.80543315  1
  Al  Al1  1  0.00918619  0.62617958  0.30522731  1
  Cu  Cu2  1  0.75874960  0.37597290  0.05492742  1
  Cu  Cu3  1  0.25901505  0.87612653  0.55547273  1
