# generated using pymatgen
data_ScGaCo2
_symmetry_space_group_name_H-M   'P 1'
_cell_length_a   4.24913359
_cell_length_b   4.24547482
_cell_length_c   4.23182631
_cell_angle_alpha   59.32827759
_cell_angle_beta   59.62615967
_cell_angle_gamma   60.08720779
_symmetry_Int_Tables_number   1
_chemical_formula_structural   ScGaCo2
_chemical_formula_sum   'Sc1 Ga1 Co2'
_cell_volume   53.58424501
_cell_formula_units_Z   1
loop_
 _symmetry_equiv_pos_site_id
 _symmetry_equiv_pos_as_xyz
  1  'x, y, z'
loop_
 _atom_site_type_symbol
 _atom_site_label
 _atom_site_symmetry_multiplicity
 _atom_site_fract_x
 _atom_site_fract_y
 _atom_site_fract_z
 _atom_site_occupancy
  Sc  Sc0  1  0.41130945  0.23699674  0.04516232  1
  Ga  Ga1  1  0.91096258  0.73681414  0.54512966  1
  Co  Co2  1  0.66096133  0.48695305  0.29479626  1
  Co  Co3  1  0.16091186  0.98744422  0.79521626  1
