# generated using pymatgen
data_ScInAu2
_symmetry_space_group_name_H-M   'P 1'
_cell_length_a   4.80407095
_cell_length_b   4.80331326
_cell_length_c   4.81011343
_cell_angle_alpha   60.07106018
_cell_angle_beta   59.93835831
_cell_angle_gamma   59.88540268
_symmetry_Int_Tables_number   1
_chemical_formula_structural   ScInAu2
_chemical_formula_sum   'Sc1 In1 Au2'
_cell_volume   78.42288042
_cell_formula_units_Z   1
loop_
 _symmetry_equiv_pos_site_id
 _symmetry_equiv_pos_as_xyz
  1  'x, y, z'
loop_
 _atom_site_type_symbol
 _atom_site_label
 _atom_site_symmetry_multiplicity
 _atom_site_fract_x
 _atom_site_fract_y
 _atom_site_fract_z
 _atom_site_occupancy
  Sc  Sc0  1  0.10066526  0.31567800  0.65672433  1
  In  In1  1  0.60108835  0.81570935  0.15653037  1
  Au  Au2  1  0.85029262  0.06552467  0.40639949  1
  Au  Au3  1  0.35031334  0.56559926  0.90634906  1
