# generated using pymatgen
data_ScNbTc2
_symmetry_space_group_name_H-M   'P 1'
_cell_length_a   4.51256371
_cell_length_b   4.51144791
_cell_length_c   4.51685333
_cell_angle_alpha   59.89836121
_cell_angle_beta   60.16903305
_cell_angle_gamma   59.99538803
_symmetry_Int_Tables_number   1
_chemical_formula_structural   ScNbTc2
_chemical_formula_sum   'Sc1 Nb1 Tc2'
_cell_volume   65.05209603
_cell_formula_units_Z   1
loop_
 _symmetry_equiv_pos_site_id
 _symmetry_equiv_pos_as_xyz
  1  'x, y, z'
loop_
 _atom_site_type_symbol
 _atom_site_label
 _atom_site_symmetry_multiplicity
 _atom_site_fract_x
 _atom_site_fract_y
 _atom_site_fract_z
 _atom_site_occupancy
  Sc  Sc0  1  0.25062996  0.12179993  0.30097735  1
  Nb  Nb1  1  0.74981171  0.62210250  0.80103177  1
  Tc  Tc2  1  0.49979833  0.37203866  0.55109638  1
  Tc  Tc3  1  0.00023484  0.87226814  0.05109840  1
