# generated using pymatgen
data_ScPd
_symmetry_space_group_name_H-M   'P 1'
_cell_length_a   3.36021566
_cell_length_b   3.30045509
_cell_length_c   3.27874923
_cell_angle_alpha   89.70420837
_cell_angle_beta   89.54900360
_cell_angle_gamma   90.29783630
_symmetry_Int_Tables_number   1
_chemical_formula_structural   ScPd
_chemical_formula_sum   'Sc1 Pd1'
_cell_volume   36.36000877
_cell_formula_units_Z   1
loop_
 _symmetry_equiv_pos_site_id
 _symmetry_equiv_pos_as_xyz
  1  'x, y, z'
loop_
 _atom_site_type_symbol
 _atom_site_label
 _atom_site_symmetry_multiplicity
 _atom_site_fract_x
 _atom_site_fract_y
 _atom_site_fract_z
 _atom_site_occupancy
  Sc  Sc0  1  0.15382822  0.47847825  0.89655757  1
  Pd  Pd1  1  0.65393054  0.97814810  0.39656419  1
