# generated using pymatgen
data_SiGeN2O
_symmetry_space_group_name_H-M   'P 1'
_cell_length_a   4.91764164
_cell_length_b   5.06902075
_cell_length_c   5.78364897
_cell_angle_alpha   111.37986755
_cell_angle_beta   90.27651215
_cell_angle_gamma   107.10732269
_symmetry_Int_Tables_number   1
_chemical_formula_structural   SiGeN2O
_chemical_formula_sum   'Si2 Ge2 N4 O2'
_cell_volume   127.29013315
_cell_formula_units_Z   2
loop_
 _symmetry_equiv_pos_site_id
 _symmetry_equiv_pos_as_xyz
  1  'x, y, z'
loop_
 _atom_site_type_symbol
 _atom_site_label
 _atom_site_symmetry_multiplicity
 _atom_site_fract_x
 _atom_site_fract_y
 _atom_site_fract_z
 _atom_site_occupancy
  Si  Si0  1  0.21995243  0.49074924  0.66208386  1
  Si  Si1  1  0.16032541  0.50786746  0.15295961  1
  Ge  Ge2  1  0.91173279  0.87255543  0.77257764  1
  Ge  Ge3  1  0.73096621  0.32068440  0.36726433  1
  N  N4  1  0.13856298  0.69656312  0.94862384  1
  N  N5  1  0.93311977  0.15271799  0.56952643  1
  N  N6  1  0.07549836  0.63600218  0.45223445  1
  N  N7  1  0.57286823  0.54678303  0.66243124  1
  O  O8  1  0.45105740  0.41360655  0.16437081  1
  O  O9  1  0.87937158  0.17328773  0.06990270  1
