# generated using pymatgen
data_SiNi3
_symmetry_space_group_name_H-M   'P 1'
_cell_length_a   3.51274347
_cell_length_b   3.51455927
_cell_length_c   3.47770834
_cell_angle_alpha   89.57771301
_cell_angle_beta   89.84980011
_cell_angle_gamma   90.16584778
_symmetry_Int_Tables_number   1
_chemical_formula_structural   SiNi3
_chemical_formula_sum   'Si1 Ni3'
_cell_volume   42.93340487
_cell_formula_units_Z   1
loop_
 _symmetry_equiv_pos_site_id
 _symmetry_equiv_pos_as_xyz
  1  'x, y, z'
loop_
 _atom_site_type_symbol
 _atom_site_label
 _atom_site_symmetry_multiplicity
 _atom_site_fract_x
 _atom_site_fract_y
 _atom_site_fract_z
 _atom_site_occupancy
  Si  Si0  1  0.59793574  0.18595663  0.72232240  1
  Ni  Ni1  1  0.09788216  0.68635440  0.72266018  1
  Ni  Ni2  1  0.59810609  0.68655825  0.22270207  1
  Ni  Ni3  1  0.09851282  0.18692987  0.22234222  1
