# generated using pymatgen
data_SiNi3Mo2
_symmetry_space_group_name_H-M   'P 1'
_cell_length_a   4.68271017
_cell_length_b   4.68669081
_cell_length_c   7.71705437
_cell_angle_alpha   90.78324127
_cell_angle_beta   90.08003235
_cell_angle_gamma   118.07828522
_symmetry_Int_Tables_number   1
_chemical_formula_structural   SiNi3Mo2
_chemical_formula_sum   'Si2 Ni6 Mo4'
_cell_volume   149.40885815
_cell_formula_units_Z   2
loop_
 _symmetry_equiv_pos_site_id
 _symmetry_equiv_pos_as_xyz
  1  'x, y, z'
loop_
 _atom_site_type_symbol
 _atom_site_label
 _atom_site_symmetry_multiplicity
 _atom_site_fract_x
 _atom_site_fract_y
 _atom_site_fract_z
 _atom_site_occupancy
  Si  Si0  1  0.72103477  0.28215924  0.88685346  1
  Si  Si1  1  0.20198017  0.79363662  0.47448885  1
  Ni  Ni2  1  0.41960511  0.08822855  0.17730130  1
  Ni  Ni3  1  0.42018592  0.58730453  0.29593998  1
  Ni  Ni4  1  0.60137004  0.90476906  0.67334080  1
  Ni  Ni5  1  0.91892922  0.58854032  0.17718726  1
  Ni  Ni6  1  0.91831750  0.08619125  0.06924573  1
  Ni  Ni7  1  0.10286285  0.41205624  0.67627460  1
  Mo  Mo8  1  0.10230553  0.91487688  0.81590706  1
  Mo  Mo9  1  0.91858327  0.08556924  0.38692769  1
  Mo  Mo10  1  0.41966054  0.58600467  0.97218943  1
  Mo  Mo11  1  0.59868121  0.38850042  0.53498751  1
