# generated using pymatgen
data_SiO2
_symmetry_space_group_name_H-M   'P 1'
_cell_length_a   8.28506851
_cell_length_b   8.24831104
_cell_length_c   8.32352257
_cell_angle_alpha   105.89158630
_cell_angle_beta   106.87927246
_cell_angle_gamma   110.71335602
_symmetry_Int_Tables_number   1
_chemical_formula_structural   SiO2
_chemical_formula_sum   'Si6 O12'
_cell_volume   461.88674204
_cell_formula_units_Z   6
loop_
 _symmetry_equiv_pos_site_id
 _symmetry_equiv_pos_as_xyz
  1  'x, y, z'
loop_
 _atom_site_type_symbol
 _atom_site_label
 _atom_site_symmetry_multiplicity
 _atom_site_fract_x
 _atom_site_fract_y
 _atom_site_fract_z
 _atom_site_occupancy
  Si  Si0  1  0.80434960  0.66249496  0.54932159  1
  Si  Si1  1  0.11705659  0.98665398  0.78043717  1
  Si  Si2  1  0.05846272  0.94814849  0.04969003  1
  Si  Si3  1  0.93461275  0.16254129  0.04934312  1
  Si  Si4  1  0.06029456  0.65948069  0.54701692  1
  Si  Si5  1  0.94441324  0.42923608  0.26732123  1
  O  O6  1  0.13360126  0.88157833  0.97124285  1
  O  O7  1  0.92317510  0.61140597  0.35587537  1
  O  O8  1  0.92770505  0.55339384  0.59882140  1
  O  O9  1  0.20506081  0.88235760  0.69488955  1
  O  O10  1  0.82381058  0.92570454  0.96465093  1
  O  O11  1  0.14868504  0.55328017  0.44516701  1
  O  O12  1  0.82212281  0.23688185  0.19536120  1
  O  O13  1  0.11440159  0.12775877  0.19521195  1
  O  O14  1  0.64182627  0.61419421  0.57493001  1
  O  O15  1  0.92315489  0.86108619  0.60253114  1
  O  O16  1  0.95099187  0.36256075  0.06126757  1
  O  O17  1  0.10549464  0.12983008  0.89556664  1
