# generated using pymatgen
data_SiO2
_symmetry_space_group_name_H-M   'P 1'
_cell_length_a   5.20738220
_cell_length_b   6.82045221
_cell_length_c   6.87486315
_cell_angle_alpha   78.58276367
_cell_angle_beta   68.15495300
_cell_angle_gamma   67.39251709
_symmetry_Int_Tables_number   1
_chemical_formula_structural   SiO2
_chemical_formula_sum   'Si4 O8'
_cell_volume   208.79428534
_cell_formula_units_Z   4
loop_
 _symmetry_equiv_pos_site_id
 _symmetry_equiv_pos_as_xyz
  1  'x, y, z'
loop_
 _atom_site_type_symbol
 _atom_site_label
 _atom_site_symmetry_multiplicity
 _atom_site_fract_x
 _atom_site_fract_y
 _atom_site_fract_z
 _atom_site_occupancy
  Si  Si0  1  0.95724851  0.04134069  0.51605898  1
  Si  Si1  1  0.28492114  0.07158404  0.80894065  1
  Si  Si2  1  0.95662516  0.39368418  0.15264124  1
  Si  Si3  1  0.28710124  0.71292430  0.17535345  1
  O  O4  1  0.12875509  0.80501157  0.40320563  1
  O  O5  1  0.62175351  0.55456007  0.15234847  1
  O  O6  1  0.12641487  0.55439812  0.15107687  1
  O  O7  1  0.12592235  0.05426415  0.65244764  1
  O  O8  1  0.12048166  0.29654673  0.90305036  1
  O  O9  1  0.62173855  0.05352101  0.65323770  1
  O  O10  1  0.29491436  0.89219087  0.98926073  1
  O  O11  1  0.95474535  0.23001680  0.33058473  1
