# generated using pymatgen
data_SiPAu
_symmetry_space_group_name_H-M   'P 1'
_cell_length_a   4.10409021
_cell_length_b   4.09830379
_cell_length_c   4.06814432
_cell_angle_alpha   58.91718674
_cell_angle_beta   59.75774002
_cell_angle_gamma   60.11780548
_symmetry_Int_Tables_number   1
_chemical_formula_structural   SiPAu
_chemical_formula_sum   'Si1 P1 Au1'
_cell_volume   47.93034056
_cell_formula_units_Z   1
loop_
 _symmetry_equiv_pos_site_id
 _symmetry_equiv_pos_as_xyz
  1  'x, y, z'
loop_
 _atom_site_type_symbol
 _atom_site_label
 _atom_site_symmetry_multiplicity
 _atom_site_fract_x
 _atom_site_fract_y
 _atom_site_fract_z
 _atom_site_occupancy
  Si  Si0  1  0.46371579  0.10924517  0.34477049  1
  P  P1  1  0.71462983  0.36068463  0.59430200  1
  Au  Au2  1  0.96460176  0.60968113  0.84493798  1
