# generated using pymatgen
data_Sm(BIr)2
_symmetry_space_group_name_H-M   'P 1'
_cell_length_a   5.53481817
_cell_length_b   5.54088497
_cell_length_c   6.15376520
_cell_angle_alpha   105.14918518
_cell_angle_beta   105.06803131
_cell_angle_gamma   114.97287750
_symmetry_Int_Tables_number   1
_chemical_formula_structural   Sm(BIr)2
_chemical_formula_sum   'Sm2 B4 Ir4'
_cell_volume   149.61697279
_cell_formula_units_Z   2
loop_
 _symmetry_equiv_pos_site_id
 _symmetry_equiv_pos_as_xyz
  1  'x, y, z'
loop_
 _atom_site_type_symbol
 _atom_site_label
 _atom_site_symmetry_multiplicity
 _atom_site_fract_x
 _atom_site_fract_y
 _atom_site_fract_z
 _atom_site_occupancy
  Sm  Sm0  1  0.27845761  0.05223552  0.73761708  1
  Sm  Sm1  1  0.52841145  0.80150503  0.23662113  1
  B  B2  1  0.84558815  0.48583627  0.23608668  1
  B  B3  1  0.96068871  0.37198901  0.73646426  1
  B  B4  1  0.20993577  0.12088583  0.23612802  1
  B  B5  1  0.59520972  0.73415995  0.73658335  1
  Ir  Ir6  1  0.64628029  0.42393988  0.47775850  1
  Ir  Ir7  1  0.90149587  0.67919135  0.99049932  1
  Ir  Ir8  1  0.15007156  0.42745617  0.49029255  1
  Ir  Ir9  1  0.89964849  0.17512393  0.97733808  1
