# generated using pymatgen
data_Sm(Fe5Re)2
_symmetry_space_group_name_H-M   'P 1'
_cell_length_a   4.74544621
_cell_length_b   6.55813265
_cell_length_c   6.57917929
_cell_angle_alpha   82.03656769
_cell_angle_beta   68.59020996
_cell_angle_gamma   68.50257111
_symmetry_Int_Tables_number   1
_chemical_formula_structural   Sm(Fe5Re)2
_chemical_formula_sum   'Sm1 Fe10 Re2'
_cell_volume   177.35955654
_cell_formula_units_Z   1
loop_
 _symmetry_equiv_pos_site_id
 _symmetry_equiv_pos_as_xyz
  1  'x, y, z'
loop_
 _atom_site_type_symbol
 _atom_site_label
 _atom_site_symmetry_multiplicity
 _atom_site_fract_x
 _atom_site_fract_y
 _atom_site_fract_z
 _atom_site_occupancy
  Sm  Sm0  1  0.60424644  0.98389798  0.17160338  1
  Fe  Fe1  1  0.10359175  0.21098532  0.94656307  1
  Fe  Fe2  1  0.60516858  0.48328120  0.16869372  1
  Fe  Fe3  1  0.60660601  0.62487978  0.52705884  1
  Fe  Fe4  1  0.60501254  0.34069106  0.81189573  1
  Fe  Fe5  1  0.10357270  0.76009130  0.39922315  1
  Fe  Fe6  1  0.10328336  0.48414013  0.16945957  1
  Fe  Fe7  1  0.60503757  0.98453122  0.66893518  1
  Fe  Fe8  1  0.10375033  0.98404735  0.66967076  1
  Fe  Fe9  1  0.87812775  0.21245706  0.39910328  1
  Fe  Fe10  1  0.96430945  0.62624061  0.81196737  1
  Re  Re11  1  0.33599344  0.75349146  0.93921906  1
  Re  Re12  1  0.24280339  0.34881192  0.53302509  1
