# generated using pymatgen
data_Sm(MnSn)6
_symmetry_space_group_name_H-M   'P 1'
_cell_length_a   5.54001188
_cell_length_b   5.54573059
_cell_length_c   9.00788212
_cell_angle_alpha   89.95139313
_cell_angle_beta   89.86148834
_cell_angle_gamma   120.24411011
_symmetry_Int_Tables_number   1
_chemical_formula_structural   Sm(MnSn)6
_chemical_formula_sum   'Sm1 Mn6 Sn6'
_cell_volume   239.08191763
_cell_formula_units_Z   1
loop_
 _symmetry_equiv_pos_site_id
 _symmetry_equiv_pos_as_xyz
  1  'x, y, z'
loop_
 _atom_site_type_symbol
 _atom_site_label
 _atom_site_symmetry_multiplicity
 _atom_site_fract_x
 _atom_site_fract_y
 _atom_site_fract_z
 _atom_site_occupancy
  Sm  Sm0  1  0.31583732  0.75436223  0.22425988  1
  Mn  Mn1  1  0.81585568  0.25518662  0.97497970  1
  Mn  Mn2  1  0.31584790  0.25539532  0.47484076  1
  Mn  Mn3  1  0.81577307  0.75460231  0.47447449  1
  Mn  Mn4  1  0.31564218  0.25526786  0.97487682  1
  Mn  Mn5  1  0.81573886  0.25460663  0.47449452  1
  Mn  Mn6  1  0.81546873  0.75507420  0.97473258  1
  Sn  Sn7  1  0.98161364  0.08736484  0.72397500  1
  Sn  Sn8  1  0.31478480  0.75475955  0.55985528  1
  Sn  Sn9  1  0.98071295  0.08836646  0.22375174  1
  Sn  Sn10  1  0.31501949  0.75484860  0.88794899  1
  Sn  Sn11  1  0.64776635  0.42123657  0.22393787  1
  Sn  Sn12  1  0.64794403  0.42151913  0.72418195  1
