# generated using pymatgen
data_Sm2CuRu
_symmetry_space_group_name_H-M   'P 1'
_cell_length_a   4.95479012
_cell_length_b   4.96014833
_cell_length_c   4.94102001
_cell_angle_alpha   59.81838608
_cell_angle_beta   59.95011139
_cell_angle_gamma   59.97025299
_symmetry_Int_Tables_number   1
_chemical_formula_structural   Sm2CuRu
_chemical_formula_sum   'Sm2 Cu1 Ru1'
_cell_volume   85.69607940
_cell_formula_units_Z   1
loop_
 _symmetry_equiv_pos_site_id
 _symmetry_equiv_pos_as_xyz
  1  'x, y, z'
loop_
 _atom_site_type_symbol
 _atom_site_label
 _atom_site_symmetry_multiplicity
 _atom_site_fract_x
 _atom_site_fract_y
 _atom_site_fract_z
 _atom_site_occupancy
  Sm  Sm0  1  0.10861883  0.55445069  0.56859833  1
  Sm  Sm1  1  0.60884029  0.05499074  0.06841671  1
  Cu  Cu2  1  0.35894874  0.80471092  0.81873846  1
  Ru  Ru3  1  0.85929483  0.30469221  0.31851190  1
