# generated using pymatgen
data_Sm2In3Cu
_symmetry_space_group_name_H-M   'P 1'
_cell_length_a   4.74666739
_cell_length_b   4.73129272
_cell_length_c   7.59466267
_cell_angle_alpha   90.17175293
_cell_angle_beta   90.04833984
_cell_angle_gamma   120.08392334
_symmetry_Int_Tables_number   1
_chemical_formula_structural   Sm2In3Cu
_chemical_formula_sum   'Sm2 In3 Cu1'
_cell_volume   147.58298873
_cell_formula_units_Z   1
loop_
 _symmetry_equiv_pos_site_id
 _symmetry_equiv_pos_as_xyz
  1  'x, y, z'
loop_
 _atom_site_type_symbol
 _atom_site_label
 _atom_site_symmetry_multiplicity
 _atom_site_fract_x
 _atom_site_fract_y
 _atom_site_fract_z
 _atom_site_occupancy
  Sm  Sm0  1  0.84200877  0.71269542  0.43551216  1
  Sm  Sm1  1  0.84160525  0.71245909  0.89745104  1
  In  In2  1  0.17464586  0.37941629  0.68205392  1
  In  In3  1  0.17510454  0.37922019  0.10653104  1
  In  In4  1  0.50777709  0.04594056  0.22168244  1
  Cu  Cu5  1  0.50778389  0.04587048  0.62711453  1
