# generated using pymatgen
data_Sm2MgAl
_symmetry_space_group_name_H-M   'P 1'
_cell_length_a   5.27636003
_cell_length_b   5.29731941
_cell_length_c   5.29626894
_cell_angle_alpha   60.10458374
_cell_angle_beta   59.97310638
_cell_angle_gamma   59.87186050
_symmetry_Int_Tables_number   1
_chemical_formula_structural   Sm2MgAl
_chemical_formula_sum   'Sm2 Mg1 Al1'
_cell_volume   104.63485485
_cell_formula_units_Z   1
loop_
 _symmetry_equiv_pos_site_id
 _symmetry_equiv_pos_as_xyz
  1  'x, y, z'
loop_
 _atom_site_type_symbol
 _atom_site_label
 _atom_site_symmetry_multiplicity
 _atom_site_fract_x
 _atom_site_fract_y
 _atom_site_fract_z
 _atom_site_occupancy
  Sm  Sm0  1  0.92871112  0.35891291  0.59059519  1
  Sm  Sm1  1  0.42860621  0.85904557  0.09066542  1
  Mg  Mg2  1  0.17841069  0.60897744  0.84063143  1
  Al  Al3  1  0.67860860  0.10907100  0.34043252  1
