# generated using pymatgen
data_Sm2Ti2S2O5
_symmetry_space_group_name_H-M   'P 1'
_cell_length_a   3.85247183
_cell_length_b   3.81592321
_cell_length_c   11.91921234
_cell_angle_alpha   99.11885071
_cell_angle_beta   99.14299774
_cell_angle_gamma   90.10206604
_symmetry_Int_Tables_number   1
_chemical_formula_structural   Sm2Ti2S2O5
_chemical_formula_sum   'Sm2 Ti2 S2 O5'
_cell_volume   170.74327223
_cell_formula_units_Z   1
loop_
 _symmetry_equiv_pos_site_id
 _symmetry_equiv_pos_as_xyz
  1  'x, y, z'
loop_
 _atom_site_type_symbol
 _atom_site_label
 _atom_site_symmetry_multiplicity
 _atom_site_fract_x
 _atom_site_fract_y
 _atom_site_fract_z
 _atom_site_occupancy
  Sm  Sm0  1  0.49431369  0.80709094  0.33218557  1
  Sm  Sm1  1  0.73044771  0.04237367  0.80411667  1
  Ti  Ti2  1  0.13815361  0.45365381  0.62167776  1
  Ti  Ti3  1  0.90499294  0.21791060  0.15346450  1
  S  S4  1  0.04524533  0.35697812  0.42662910  1
  S  S5  1  0.28173432  0.59102172  0.90141106  1
  O  O6  1  0.93319643  0.74502689  0.20473990  1
  O  O7  1  0.43326840  0.24602403  0.20461646  1
  O  O8  1  0.83813870  0.14886224  0.01124995  1
  O  O9  1  0.16560620  0.97663766  0.66961384  1
  O  O10  1  0.66352272  0.47731793  0.66955495  1
