# generated using pymatgen
data_Sm2TlHg
_symmetry_space_group_name_H-M   'P 1'
_cell_length_a   5.44062901
_cell_length_b   5.45694113
_cell_length_c   5.45395088
_cell_angle_alpha   59.98733521
_cell_angle_beta   59.88672638
_cell_angle_gamma   59.87947464
_symmetry_Int_Tables_number   1
_chemical_formula_structural   Sm2TlHg
_chemical_formula_sum   'Sm2 Tl1 Hg1'
_cell_volume   114.28349934
_cell_formula_units_Z   1
loop_
 _symmetry_equiv_pos_site_id
 _symmetry_equiv_pos_as_xyz
  1  'x, y, z'
loop_
 _atom_site_type_symbol
 _atom_site_label
 _atom_site_symmetry_multiplicity
 _atom_site_fract_x
 _atom_site_fract_y
 _atom_site_fract_z
 _atom_site_occupancy
  Sm  Sm0  1  0.99441922  0.20110536  0.40169278  1
  Sm  Sm1  1  0.49488285  0.70159322  0.90144771  1
  Tl  Tl2  1  0.74438226  0.95120776  0.15189788  1
  Hg  Hg3  1  0.24470137  0.45130146  0.65152633  1
