# generated using pymatgen
data_SmAs
_symmetry_space_group_name_H-M   'P 1'
_cell_length_a   4.21159172
_cell_length_b   4.20391369
_cell_length_c   4.20382929
_cell_angle_alpha   59.82409668
_cell_angle_beta   59.89688492
_cell_angle_gamma   59.78979492
_symmetry_Int_Tables_number   1
_chemical_formula_structural   SmAs
_chemical_formula_sum   'Sm1 As1'
_cell_volume   52.43472460
_cell_formula_units_Z   1
loop_
 _symmetry_equiv_pos_site_id
 _symmetry_equiv_pos_as_xyz
  1  'x, y, z'
loop_
 _atom_site_type_symbol
 _atom_site_label
 _atom_site_symmetry_multiplicity
 _atom_site_fract_x
 _atom_site_fract_y
 _atom_site_fract_z
 _atom_site_occupancy
  Sm  Sm0  1  0.03241923  0.97426438  0.53555286  1
  As  As1  1  0.53305238  0.47355321  0.03530848  1
