# generated using pymatgen
data_SmAu
_symmetry_space_group_name_H-M   'P 1'
_cell_length_a   3.63979530
_cell_length_b   3.66792250
_cell_length_c   3.62994885
_cell_angle_alpha   89.60805511
_cell_angle_beta   90.02133179
_cell_angle_gamma   90.35474396
_symmetry_Int_Tables_number   1
_chemical_formula_structural   SmAu
_chemical_formula_sum   'Sm1 Au1'
_cell_volume   48.45951990
_cell_formula_units_Z   1
loop_
 _symmetry_equiv_pos_site_id
 _symmetry_equiv_pos_as_xyz
  1  'x, y, z'
loop_
 _atom_site_type_symbol
 _atom_site_label
 _atom_site_symmetry_multiplicity
 _atom_site_fract_x
 _atom_site_fract_y
 _atom_site_fract_z
 _atom_site_occupancy
  Sm  Sm0  1  0.30670381  0.27499282  0.60501158  1
  Au  Au1  1  0.80671090  0.77495778  0.10519779  1
