# generated using pymatgen
data_SmB4(IrOs)2
_symmetry_space_group_name_H-M   'P 1'
_cell_length_a   3.92613316
_cell_length_b   7.75462675
_cell_length_c   7.74279261
_cell_angle_alpha   90.54399872
_cell_angle_beta   90.12395477
_cell_angle_gamma   89.93286896
_symmetry_Int_Tables_number   1
_chemical_formula_structural   SmB4(IrOs)2
_chemical_formula_sum   'Sm2 B8 Ir4 Os4'
_cell_volume   235.72338604
_cell_formula_units_Z   2
loop_
 _symmetry_equiv_pos_site_id
 _symmetry_equiv_pos_as_xyz
  1  'x, y, z'
loop_
 _atom_site_type_symbol
 _atom_site_label
 _atom_site_symmetry_multiplicity
 _atom_site_fract_x
 _atom_site_fract_y
 _atom_site_fract_z
 _atom_site_occupancy
  Sm  Sm0  1  0.74526179  0.32244477  0.00657660  1
  Sm  Sm1  1  0.24712507  0.81885785  0.54520035  1
  B  B2  1  0.67203742  0.69422668  0.23892447  1
  B  B3  1  0.17259096  0.15393193  0.73950589  1
  B  B4  1  0.67237860  0.98036557  0.80432034  1
  B  B5  1  0.17207442  0.39572486  0.32645467  1
  B  B6  1  0.17249832  0.58473176  0.88101405  1
  B  B7  1  0.39406303  0.88755131  0.15199465  1
  B  B8  1  0.89312720  0.19901837  0.38349152  1
  B  B9  1  0.67256147  0.54067242  0.67837471  1
  Ir  Ir10  1  0.37573761  0.15663059  0.30021718  1
  Ir  Ir11  1  0.67253006  0.48620155  0.41662404  1
  Ir  Ir12  1  0.67178708  0.72155029  0.89903152  1
  Ir  Ir13  1  0.17270383  0.62213606  0.15822250  1
  Os  Os14  1  0.87273097  0.92731988  0.21774177  1
  Os  Os15  1  0.17257722  0.98589438  0.92619592  1
  Os  Os16  1  0.67189723  0.16220260  0.62388742  1
  Os  Os17  1  0.17167275  0.41739830  0.65979135  1
