# generated using pymatgen
data_SmEuRh2
_symmetry_space_group_name_H-M   'P 1'
_cell_length_a   4.94848204
_cell_length_b   4.94256258
_cell_length_c   4.92624760
_cell_angle_alpha   59.61461639
_cell_angle_beta   59.57187271
_cell_angle_gamma   59.91247177
_symmetry_Int_Tables_number   1
_chemical_formula_structural   SmEuRh2
_chemical_formula_sum   'Sm1 Eu1 Rh2'
_cell_volume   84.61417798
_cell_formula_units_Z   1
loop_
 _symmetry_equiv_pos_site_id
 _symmetry_equiv_pos_as_xyz
  1  'x, y, z'
loop_
 _atom_site_type_symbol
 _atom_site_label
 _atom_site_symmetry_multiplicity
 _atom_site_fract_x
 _atom_site_fract_y
 _atom_site_fract_z
 _atom_site_occupancy
  Sm  Sm0  1  0.93540668  0.48646450  0.38650113  1
  Eu  Eu1  1  0.43561023  0.98641801  0.88674915  1
  Rh  Rh2  1  0.68495178  0.23656790  0.13714465  1
  Rh  Rh3  1  0.18498406  0.73670101  0.63668060  1
