# generated using pymatgen
data_SmFeGe2
_symmetry_space_group_name_H-M   'P 1'
_cell_length_a   4.14376116
_cell_length_b   4.19738626
_cell_length_c   9.10407066
_cell_angle_alpha   103.28222656
_cell_angle_beta   89.76240540
_cell_angle_gamma   90.03349304
_symmetry_Int_Tables_number   1
_chemical_formula_structural   SmFeGe2
_chemical_formula_sum   'Sm2 Fe2 Ge4'
_cell_volume   154.10971012
_cell_formula_units_Z   2
loop_
 _symmetry_equiv_pos_site_id
 _symmetry_equiv_pos_as_xyz
  1  'x, y, z'
loop_
 _atom_site_type_symbol
 _atom_site_label
 _atom_site_symmetry_multiplicity
 _atom_site_fract_x
 _atom_site_fract_y
 _atom_site_fract_z
 _atom_site_occupancy
  Sm  Sm0  1  0.09032030  0.03688252  0.14927846  1
  Sm  Sm1  1  0.59053761  0.24752589  0.57510287  1
  Fe  Fe2  1  0.09023248  0.67215675  0.42045385  1
  Fe  Fe3  1  0.59064788  0.89178747  0.85713404  1
  Ge  Ge4  1  0.59007418  0.61533707  0.30020249  1
  Ge  Ge5  1  0.09011403  0.80757517  0.68720901  1
  Ge  Ge6  1  0.08987576  0.39138436  0.85676569  1
  Ge  Ge7  1  0.59016323  0.46980885  0.01202484  1
