# generated using pymatgen
data_SmGd3
_symmetry_space_group_name_H-M   'P 1'
_cell_length_a   5.08288336
_cell_length_b   5.08882570
_cell_length_c   6.28074121
_cell_angle_alpha   114.09272766
_cell_angle_beta   114.06873322
_cell_angle_gamma   89.88971710
_symmetry_Int_Tables_number   1
_chemical_formula_structural   SmGd3
_chemical_formula_sum   'Sm1 Gd3'
_cell_volume   132.74550911
_cell_formula_units_Z   1
loop_
 _symmetry_equiv_pos_site_id
 _symmetry_equiv_pos_as_xyz
  1  'x, y, z'
loop_
 _atom_site_type_symbol
 _atom_site_label
 _atom_site_symmetry_multiplicity
 _atom_site_fract_x
 _atom_site_fract_y
 _atom_site_fract_z
 _atom_site_occupancy
  Sm  Sm0  1  0.60766411  0.54273528  0.01673420  1
  Gd  Gd1  1  0.35804281  0.79293764  0.51593667  1
  Gd  Gd2  1  0.10759672  0.04321410  0.01637460  1
  Gd  Gd3  1  0.85816401  0.29314765  0.51643777  1
