# generated using pymatgen
data_SmGePt
_symmetry_space_group_name_H-M   'P 1'
_cell_length_a   4.45727682
_cell_length_b   7.37088585
_cell_length_c   7.72335815
_cell_angle_alpha   89.88293457
_cell_angle_beta   89.94476318
_cell_angle_gamma   90.04190063
_symmetry_Int_Tables_number   1
_chemical_formula_structural   SmGePt
_chemical_formula_sum   'Sm4 Ge4 Pt4'
_cell_volume   253.74310044
_cell_formula_units_Z   4
loop_
 _symmetry_equiv_pos_site_id
 _symmetry_equiv_pos_as_xyz
  1  'x, y, z'
loop_
 _atom_site_type_symbol
 _atom_site_label
 _atom_site_symmetry_multiplicity
 _atom_site_fract_x
 _atom_site_fract_y
 _atom_site_fract_z
 _atom_site_occupancy
  Sm  Sm0  1  0.33509821  0.61234719  0.77447337  1
  Sm  Sm1  1  0.83472753  0.60158819  0.37187427  1
  Sm  Sm2  1  0.83464861  0.10179332  0.27512884  1
  Sm  Sm3  1  0.33495191  0.11257429  0.87161374  1
  Ge  Ge4  1  0.83483917  0.41986284  0.98553735  1
  Ge  Ge5  1  0.33454463  0.79400343  0.16102897  1
  Ge  Ge6  1  0.33486104  0.29371056  0.48539460  1
  Ge  Ge7  1  0.83503604  0.91972047  0.66097063  1
  Pt  Pt8  1  0.83478969  0.30619082  0.65797591  1
  Pt  Pt9  1  0.33495581  0.90583581  0.48805314  1
  Pt  Pt10  1  0.83469784  0.80581248  0.98804998  1
  Pt  Pt11  1  0.33479041  0.40586379  0.15744276  1
