# generated using pymatgen
data_SmTlSe2
_symmetry_space_group_name_H-M   'P 1'
_cell_length_a   4.31752157
_cell_length_b   4.32046652
_cell_length_c   8.11712170
_cell_angle_alpha   74.71378326
_cell_angle_beta   74.73185730
_cell_angle_gamma   60.04387665
_symmetry_Int_Tables_number   1
_chemical_formula_structural   SmTlSe2
_chemical_formula_sum   'Sm1 Tl1 Se2'
_cell_volume   124.96454047
_cell_formula_units_Z   1
loop_
 _symmetry_equiv_pos_site_id
 _symmetry_equiv_pos_as_xyz
  1  'x, y, z'
loop_
 _atom_site_type_symbol
 _atom_site_label
 _atom_site_symmetry_multiplicity
 _atom_site_fract_x
 _atom_site_fract_y
 _atom_site_fract_z
 _atom_site_occupancy
  Sm  Sm0  1  0.92991322  0.49403077  0.68333292  1
  Tl  Tl1  1  0.43001285  0.99490130  0.18345004  1
  Se  Se2  1  0.19425045  0.75769824  0.88954723  1
  Se  Se3  1  0.66751635  0.22995922  0.47724554  1
