# generated using pymatgen
data_Sr2CdPb
_symmetry_space_group_name_H-M   'P 1'
_cell_length_a   5.81429482
_cell_length_b   5.81271887
_cell_length_c   5.80225849
_cell_angle_alpha   59.65892029
_cell_angle_beta   59.79766846
_cell_angle_gamma   60.06584549
_symmetry_Int_Tables_number   1
_chemical_formula_structural   Sr2CdPb
_chemical_formula_sum   'Sr2 Cd1 Pb1'
_cell_volume   138.15773048
_cell_formula_units_Z   1
loop_
 _symmetry_equiv_pos_site_id
 _symmetry_equiv_pos_as_xyz
  1  'x, y, z'
loop_
 _atom_site_type_symbol
 _atom_site_label
 _atom_site_symmetry_multiplicity
 _atom_site_fract_x
 _atom_site_fract_y
 _atom_site_fract_z
 _atom_site_occupancy
  Sr  Sr0  1  0.42396373  0.95356452  0.12068935  1
  Sr  Sr1  1  0.92400134  0.45321187  0.62031859  1
  Cd  Cd2  1  0.67353094  0.20310035  0.37044469  1
  Pb  Pb3  1  0.17356092  0.70258909  0.86995721  1
