# generated using pymatgen
data_Sr2FeWO6
_symmetry_space_group_name_H-M   'P 1'
_cell_length_a   5.70021963
_cell_length_b   5.72962713
_cell_length_c   8.07424355
_cell_angle_alpha   89.93756866
_cell_angle_beta   89.93447876
_cell_angle_gamma   89.83461761
_symmetry_Int_Tables_number   1
_chemical_formula_structural   Sr2FeWO6
_chemical_formula_sum   'Sr4 Fe2 W2 O12'
_cell_volume   263.70444197
_cell_formula_units_Z   2
loop_
 _symmetry_equiv_pos_site_id
 _symmetry_equiv_pos_as_xyz
  1  'x, y, z'
loop_
 _atom_site_type_symbol
 _atom_site_label
 _atom_site_symmetry_multiplicity
 _atom_site_fract_x
 _atom_site_fract_y
 _atom_site_fract_z
 _atom_site_occupancy
  Sr  Sr0  1  0.32240647  0.25894240  0.04655940  1
  Sr  Sr1  1  0.32263556  0.26163232  0.54736859  1
  Sr  Sr2  1  0.82263887  0.76052099  0.04735648  1
  Sr  Sr3  1  0.82237875  0.75840330  0.54694593  1
  Fe  Fe4  1  0.82300067  0.26040134  0.29990971  1
  Fe  Fe5  1  0.32301793  0.76083404  0.80044222  1
  W  W6  1  0.82281375  0.26001391  0.80014718  1
  W  W7  1  0.32296196  0.75956893  0.30035257  1
  O  O8  1  0.32135969  0.71284032  0.06197805  1
  O  O9  1  0.82302803  0.31060937  0.03829995  1
  O  O10  1  0.08022015  0.00296792  0.27790010  1
  O  O11  1  0.56291080  0.00304012  0.27751243  1
  O  O12  1  0.07090937  0.01930386  0.82515216  1
  O  O13  1  0.32183418  0.81140566  0.53779423  1
  O  O14  1  0.08232192  0.51892114  0.32600135  1
  O  O15  1  0.82202065  0.21279489  0.56343615  1
  O  O16  1  0.57981795  0.50316566  0.77870095  1
  O  O17  1  0.56488758  0.51982737  0.32584822  1
  O  O18  1  0.58168942  0.01893317  0.82531148  1
  O  O19  1  0.06414904  0.50349009  0.77822733  1
