# generated using pymatgen
data_Sr2LiReO6
_symmetry_space_group_name_H-M   'P 1'
_cell_length_a   5.55866861
_cell_length_b   5.64835405
_cell_length_c   5.59735727
_cell_angle_alpha   120.55096436
_cell_angle_beta   89.77811432
_cell_angle_gamma   119.63808441
_symmetry_Int_Tables_number   1
_chemical_formula_structural   Sr2LiReO6
_chemical_formula_sum   'Sr2 Li1 Re1 O6'
_cell_volume   124.14514645
_cell_formula_units_Z   1
loop_
 _symmetry_equiv_pos_site_id
 _symmetry_equiv_pos_as_xyz
  1  'x, y, z'
loop_
 _atom_site_type_symbol
 _atom_site_label
 _atom_site_symmetry_multiplicity
 _atom_site_fract_x
 _atom_site_fract_y
 _atom_site_fract_z
 _atom_site_occupancy
  Sr  Sr0  1  0.44949302  0.92879343  0.85774767  1
  Sr  Sr1  1  0.95165008  0.92807972  0.35855639  1
  Li  Li2  1  0.20078488  0.42917752  0.10680589  1
  Re  Re3  1  0.70094568  0.42830741  0.60731703  1
  O  O4  1  0.46946955  0.97329712  0.38135439  1
  O  O5  1  0.89453870  0.42784852  0.32467547  1
  O  O6  1  0.93089539  0.89181399  0.84007102  1
  O  O7  1  0.99513382  0.42913124  0.79872906  1
  O  O8  1  0.40832138  0.42883459  0.41101691  1
  O  O9  1  0.51487029  0.42928052  0.90442967  1
