# generated using pymatgen
data_Sr2La2Mg(RuO4)3
_symmetry_space_group_name_H-M   'P 1'
_cell_length_a   5.63984776
_cell_length_b   5.70656347
_cell_length_c   7.95166254
_cell_angle_alpha   89.74645233
_cell_angle_beta   89.66986084
_cell_angle_gamma   89.82964325
_symmetry_Int_Tables_number   1
_chemical_formula_structural   Sr2La2Mg(RuO4)3
_chemical_formula_sum   'Sr2 La2 Mg1 Ru3 O12'
_cell_volume   255.90962755
_cell_formula_units_Z   1
loop_
 _symmetry_equiv_pos_site_id
 _symmetry_equiv_pos_as_xyz
  1  'x, y, z'
loop_
 _atom_site_type_symbol
 _atom_site_label
 _atom_site_symmetry_multiplicity
 _atom_site_fract_x
 _atom_site_fract_y
 _atom_site_fract_z
 _atom_site_occupancy
  Sr  Sr0  1  0.43702096  0.58585018  0.93418962  1
  Sr  Sr1  1  0.95296419  0.08815529  0.93288672  1
  La  La2  1  0.45641044  0.67478347  0.42854413  1
  La  La3  1  0.93641967  0.17503732  0.42833111  1
  Mg  Mg4  1  0.44463626  0.12735021  0.17987637  1
  Ru  Ru5  1  0.94618702  0.62718534  0.18025535  1
  Ru  Ru6  1  0.44506699  0.12727599  0.68480778  1
  Ru  Ru7  1  0.94626671  0.62582886  0.68406272  1
  O  O8  1  0.23445080  0.83683038  0.71422434  1
  O  O9  1  0.51273239  0.14051743  0.92395216  1
  O  O10  1  0.36405557  0.10219578  0.43860734  1
  O  O11  1  0.73462105  0.90970099  0.63163656  1
  O  O12  1  0.03235970  0.60414159  0.43085515  1
  O  O13  1  0.87089396  0.63734132  0.92931783  1
  O  O14  1  0.14969864  0.33968064  0.15184754  1
  O  O15  1  0.15335892  0.33848307  0.70985770  1
  O  O16  1  0.73638570  0.90794200  0.23154682  1
  O  O17  1  0.65697289  0.41117889  0.62997800  1
  O  O18  1  0.23085286  0.83444756  0.15084460  1
  O  O19  1  0.66255814  0.41752914  0.23407337  1
