# generated using pymatgen
data_Sr2NiN2
_symmetry_space_group_name_H-M   'P 1'
_cell_length_a   3.92684150
_cell_length_b   3.91108298
_cell_length_c   6.68092871
_cell_angle_alpha   106.71988678
_cell_angle_beta   106.50465393
_cell_angle_gamma   90.17029572
_symmetry_Int_Tables_number   1
_chemical_formula_structural   Sr2NiN2
_chemical_formula_sum   'Sr2 Ni1 N2'
_cell_volume   93.81838285
_cell_formula_units_Z   1
loop_
 _symmetry_equiv_pos_site_id
 _symmetry_equiv_pos_as_xyz
  1  'x, y, z'
loop_
 _atom_site_type_symbol
 _atom_site_label
 _atom_site_symmetry_multiplicity
 _atom_site_fract_x
 _atom_site_fract_y
 _atom_site_fract_z
 _atom_site_occupancy
  Sr  Sr0  1  0.99625397  0.28988177  0.48461083  1
  Sr  Sr1  1  0.29068395  0.58446163  0.07876901  1
  Ni  Ni2  1  0.64627111  0.93739963  0.78915423  1
  N  N3  1  0.50262135  0.79528683  0.49569374  1
  N  N4  1  0.79004949  0.08327349  0.07689715  1
