# generated using pymatgen
data_Sr2Si
_symmetry_space_group_name_H-M   'P 1'
_cell_length_a   4.98480320
_cell_length_b   4.98625326
_cell_length_c   8.49634075
_cell_angle_alpha   89.83003235
_cell_angle_beta   89.99243164
_cell_angle_gamma   90.06019592
_symmetry_Int_Tables_number   1
_chemical_formula_structural   Sr2Si
_chemical_formula_sum   'Sr4 Si2'
_cell_volume   211.17967521
_cell_formula_units_Z   2
loop_
 _symmetry_equiv_pos_site_id
 _symmetry_equiv_pos_as_xyz
  1  'x, y, z'
loop_
 _atom_site_type_symbol
 _atom_site_label
 _atom_site_symmetry_multiplicity
 _atom_site_fract_x
 _atom_site_fract_y
 _atom_site_fract_z
 _atom_site_occupancy
  Sr  Sr0  1  0.18435271  0.76986772  0.85486108  1
  Sr  Sr1  1  0.68390071  0.26938811  0.12092740  1
  Sr  Sr2  1  0.18378212  0.26958087  0.48927861  1
  Sr  Sr3  1  0.68402743  0.76952314  0.48827216  1
  Si  Si4  1  0.68519890  0.26950464  0.75010848  1
  Si  Si5  1  0.18425775  0.76956171  0.22618292  1
