# generated using pymatgen
data_Sr2ScGaO5
_symmetry_space_group_name_H-M   'P 1'
_cell_length_a   5.65333128
_cell_length_b   5.67773819
_cell_length_c   7.84338951
_cell_angle_alpha   89.90625000
_cell_angle_beta   89.81748962
_cell_angle_gamma   90.00285339
_symmetry_Int_Tables_number   1
_chemical_formula_structural   Sr2ScGaO5
_chemical_formula_sum   'Sr4 Sc2 Ga2 O10'
_cell_volume   251.75655998
_cell_formula_units_Z   2
loop_
 _symmetry_equiv_pos_site_id
 _symmetry_equiv_pos_as_xyz
  1  'x, y, z'
loop_
 _atom_site_type_symbol
 _atom_site_label
 _atom_site_symmetry_multiplicity
 _atom_site_fract_x
 _atom_site_fract_y
 _atom_site_fract_z
 _atom_site_occupancy
  Sr  Sr0  1  0.17559832  0.74761289  0.49124283  1
  Sr  Sr1  1  0.67503965  0.24848802  0.49126801  1
  Sr  Sr2  1  0.67567235  0.24784248  0.99099332  1
  Sr  Sr3  1  0.17546280  0.74811959  0.99244857  1
  Sc  Sc4  1  0.67609513  0.74869817  0.74826872  1
  Sc  Sc5  1  0.17560190  0.24834223  0.23964843  1
  Ga  Ga6  1  0.17515062  0.24822357  0.74763072  1
  Ga  Ga7  1  0.67600942  0.74903661  0.23791677  1
  O  O8  1  0.43515322  0.99596596  0.27631178  1
  O  O9  1  0.92334735  0.50462848  0.27604437  1
  O  O10  1  0.92839938  0.00314484  0.70472533  1
  O  O11  1  0.17524251  0.24865393  0.98579133  1
  O  O12  1  0.41816762  0.48844132  0.70488846  1
  O  O13  1  0.43450147  0.50310290  0.27619553  1
  O  O14  1  0.67564481  0.74969727  0.99792886  1
  O  O15  1  0.92226803  0.99042612  0.27669618  1
  O  O16  1  0.92811525  0.48920792  0.70492536  1
  O  O17  1  0.41759801  0.00323487  0.70497507  1
