# generated using pymatgen
data_Sr2U2O7
_symmetry_space_group_name_H-M   'P 1'
_cell_length_a   4.08175707
_cell_length_b   6.77798605
_cell_length_c   6.81236076
_cell_angle_alpha   106.37614441
_cell_angle_beta   90.09140015
_cell_angle_gamma   90.02870178
_symmetry_Int_Tables_number   1
_chemical_formula_structural   Sr2U2O7
_chemical_formula_sum   'Sr2 U2 O7'
_cell_volume   180.82507181
_cell_formula_units_Z   1
loop_
 _symmetry_equiv_pos_site_id
 _symmetry_equiv_pos_as_xyz
  1  'x, y, z'
loop_
 _atom_site_type_symbol
 _atom_site_label
 _atom_site_symmetry_multiplicity
 _atom_site_fract_x
 _atom_site_fract_y
 _atom_site_fract_z
 _atom_site_occupancy
  Sr  Sr0  1  0.05732153  0.63965005  0.50720209  1
  Sr  Sr1  1  0.05799236  0.13924123  0.00322080  1
  U  U2  1  0.55789566  0.13897827  0.50929296  1
  U  U3  1  0.55784380  0.64069670  0.00697857  1
  O  O4  1  0.55797613  0.32222617  0.83625144  1
  O  O5  1  0.55681688  0.39547265  0.38325974  1
  O  O6  1  0.05738719  0.71973461  0.87043947  1
  O  O7  1  0.55768460  0.89185429  0.65476400  1
  O  O8  1  0.55740619  0.94936967  0.19085626  1
  O  O9  1  0.05717240  0.14008583  0.51256233  1
  O  O10  1  0.05766037  0.55753303  0.13619110  1
