# generated using pymatgen
data_Sr2YFe3O8
_symmetry_space_group_name_H-M   'P 1'
_cell_length_a   3.91170430
_cell_length_b   5.72776890
_cell_length_c   8.57191372
_cell_angle_alpha   90.07960510
_cell_angle_beta   103.77996063
_cell_angle_gamma   90.18824768
_symmetry_Int_Tables_number   1
_chemical_formula_structural   Sr2YFe3O8
_chemical_formula_sum   'Sr2 Y1 Fe3 O8'
_cell_volume   186.52731166
_cell_formula_units_Z   1
loop_
 _symmetry_equiv_pos_site_id
 _symmetry_equiv_pos_as_xyz
  1  'x, y, z'
loop_
 _atom_site_type_symbol
 _atom_site_label
 _atom_site_symmetry_multiplicity
 _atom_site_fract_x
 _atom_site_fract_y
 _atom_site_fract_z
 _atom_site_occupancy
  Sr  Sr0  1  0.34664118  0.65156060  0.29243115  1
  Sr  Sr1  1  0.51235241  0.15171388  0.62569124  1
  Y  Y2  1  0.65764642  0.65218526  0.90901244  1
  Fe  Fe3  1  0.01282854  0.65232044  0.62407726  1
  Fe  Fe4  1  0.21146263  0.15189169  0.02258430  1
  Fe  Fe5  1  0.84598500  0.15238400  0.28778180  1
  O  O6  1  0.75064462  0.91959673  0.09655151  1
  O  O7  1  0.51802683  0.65375012  0.63868451  1
  O  O8  1  0.92931229  0.89837337  0.45898083  1
  O  O9  1  0.92974341  0.39885294  0.45871320  1
  O  O10  1  0.75142860  0.39069477  0.09656092  1
  O  O11  1  0.12207166  0.89516473  0.83548099  1
  O  O12  1  0.12143233  0.41475317  0.83596402  1
  O  O13  1  0.33192602  0.14583847  0.26363695  1
