# generated using pymatgen
data_Sr2YNbO6
_symmetry_space_group_name_H-M   'P 1'
_cell_length_a   5.83261251
_cell_length_b   5.99629545
_cell_length_c   8.39888382
_cell_angle_alpha   89.95231628
_cell_angle_beta   89.95091248
_cell_angle_gamma   90.05464935
_symmetry_Int_Tables_number   1
_chemical_formula_structural   Sr2YNbO6
_chemical_formula_sum   'Sr4 Y2 Nb2 O12'
_cell_volume   293.74278960
_cell_formula_units_Z   2
loop_
 _symmetry_equiv_pos_site_id
 _symmetry_equiv_pos_as_xyz
  1  'x, y, z'
loop_
 _atom_site_type_symbol
 _atom_site_label
 _atom_site_symmetry_multiplicity
 _atom_site_fract_x
 _atom_site_fract_y
 _atom_site_fract_z
 _atom_site_occupancy
  Sr  Sr0  1  0.10431665  0.55042958  0.77946669  1
  Sr  Sr1  1  0.60365242  0.13746190  0.27976936  1
  Sr  Sr2  1  0.08440949  0.63795352  0.27996451  1
  Sr  Sr3  1  0.58493239  0.05037051  0.77877158  1
  Y  Y4  1  0.09469348  0.09399665  0.53056926  1
  Y  Y5  1  0.59434289  0.59407067  0.52986437  1
  Nb  Nb6  1  0.59491831  0.59392536  0.02996077  1
  Nb  Nb7  1  0.09444612  0.09429656  0.02990891  1
  O  O8  1  0.38622537  0.30230656  0.98372269  1
  O  O9  1  0.30460709  0.80168527  0.98518085  1
  O  O10  1  0.38629553  0.29981706  0.57338822  1
  O  O11  1  0.80484718  0.88442135  0.07416607  1
  O  O12  1  0.67699862  0.61875045  0.80102450  1
  O  O13  1  0.80435520  0.88577086  0.48328692  1
  O  O14  1  0.51106292  0.56727594  0.25712663  1
  O  O15  1  0.01045917  0.11978691  0.80269939  1
  O  O16  1  0.88658267  0.38683018  0.48103148  1
  O  O17  1  0.88636106  0.38608959  0.07189770  1
  O  O18  1  0.17795812  0.06822794  0.25766745  1
  O  O19  1  0.30446982  0.80004925  0.57431191  1
