# generated using pymatgen
data_Sr3Ca
_symmetry_space_group_name_H-M   'P 1'
_cell_length_a   6.80009747
_cell_length_b   8.18906307
_cell_length_c   8.15677738
_cell_angle_alpha   59.64205551
_cell_angle_beta   90.09452057
_cell_angle_gamma   89.98573303
_symmetry_Int_Tables_number   1
_chemical_formula_structural   Sr3Ca
_chemical_formula_sum   'Sr6 Ca2'
_cell_volume   391.94026673
_cell_formula_units_Z   2
loop_
 _symmetry_equiv_pos_site_id
 _symmetry_equiv_pos_as_xyz
  1  'x, y, z'
loop_
 _atom_site_type_symbol
 _atom_site_label
 _atom_site_symmetry_multiplicity
 _atom_site_fract_x
 _atom_site_fract_y
 _atom_site_fract_z
 _atom_site_occupancy
  Sr  Sr0  1  0.66680419  0.99659050  0.06470373  1
  Sr  Sr1  1  0.66639084  0.99539804  0.56568676  1
  Sr  Sr2  1  0.16656463  0.16444784  0.73101431  1
  Sr  Sr3  1  0.66660148  0.49807993  0.56605232  1
  Sr  Sr4  1  0.16653118  0.16488746  0.23017351  1
  Sr  Sr5  1  0.16652922  0.66260797  0.22999297  1
  Ca  Ca6  1  0.66654015  0.49752823  0.06371563  1
  Ca  Ca7  1  0.16669780  0.66350847  0.73181891  1
