# generated using pymatgen
data_SrCu3(RuO3)4
_symmetry_space_group_name_H-M   'P 1'
_cell_length_a   6.52751017
_cell_length_b   6.55996561
_cell_length_c   6.53033400
_cell_angle_alpha   109.16274261
_cell_angle_beta   109.19879150
_cell_angle_gamma   110.05915833
_symmetry_Int_Tables_number   1
_chemical_formula_structural   SrCu3(RuO3)4
_chemical_formula_sum   'Sr1 Cu3 Ru4 O12'
_cell_volume   215.22827396
_cell_formula_units_Z   1
loop_
 _symmetry_equiv_pos_site_id
 _symmetry_equiv_pos_as_xyz
  1  'x, y, z'
loop_
 _atom_site_type_symbol
 _atom_site_label
 _atom_site_symmetry_multiplicity
 _atom_site_fract_x
 _atom_site_fract_y
 _atom_site_fract_z
 _atom_site_occupancy
  Sr  Sr0  1  0.38342893  0.40280071  0.01544732  1
  Cu  Cu1  1  0.88444549  0.40203196  0.51544261  1
  Cu  Cu2  1  0.38434166  0.90238881  0.51614988  1
  Cu  Cu3  1  0.88349593  0.90249926  0.01557441  1
  Ru  Ru4  1  0.38330719  0.40242812  0.51548159  1
  Ru  Ru5  1  0.38405350  0.90116572  0.01590221  1
  Ru  Ru6  1  0.88457805  0.40272799  0.01561724  1
  Ru  Ru7  1  0.88382220  0.90206617  0.51570100  1
  O  O8  1  0.86517960  0.71161586  0.18951473  1
  O  O9  1  0.55542916  0.87695616  0.32658374  1
  O  O10  1  0.07497402  0.23224816  0.53634930  1
  O  O11  1  0.69187784  0.23018946  0.15136670  1
  O  O12  1  0.69341320  0.57636380  0.49568895  1
  O  O13  1  0.52127624  0.71185654  0.84338546  1
  O  O14  1  0.90583909  0.09830118  0.84363073  1
  O  O15  1  0.55754316  0.26820889  0.70766032  1
  O  O16  1  0.21161611  0.92446876  0.70815301  1
  O  O17  1  0.24999213  0.09728499  0.19210544  1
  O  O18  1  0.21095411  0.53811419  0.32647282  1
  O  O19  1  0.07483867  0.57784051  0.88172150  1
