# generated using pymatgen
data_SrInHg2
_symmetry_space_group_name_H-M   'P 1'
_cell_length_a   5.36877489
_cell_length_b   5.38317108
_cell_length_c   5.37987471
_cell_angle_alpha   59.93594742
_cell_angle_beta   60.00151062
_cell_angle_gamma   59.97309494
_symmetry_Int_Tables_number   1
_chemical_formula_structural   SrInHg2
_chemical_formula_sum   'Sr1 In1 Hg2'
_cell_volume   109.86934076
_cell_formula_units_Z   1
loop_
 _symmetry_equiv_pos_site_id
 _symmetry_equiv_pos_as_xyz
  1  'x, y, z'
loop_
 _atom_site_type_symbol
 _atom_site_label
 _atom_site_symmetry_multiplicity
 _atom_site_fract_x
 _atom_site_fract_y
 _atom_site_fract_z
 _atom_site_occupancy
  Sr  Sr0  1  0.81051451  0.37469891  0.08617079  1
  In  In1  1  0.30995798  0.87475097  0.58612084  1
  Hg  Hg2  1  0.05975331  0.62493974  0.33554146  1
  Hg  Hg3  1  0.55990213  0.12507534  0.83597517  1
