# generated using pymatgen
data_SrTeO3
_symmetry_space_group_name_H-M   'P 1'
_cell_length_a   5.95193481
_cell_length_b   6.26051283
_cell_length_c   8.62425041
_cell_angle_alpha   89.18334961
_cell_angle_beta   90.66776276
_cell_angle_gamma   89.91593170
_symmetry_Int_Tables_number   1
_chemical_formula_structural   SrTeO3
_chemical_formula_sum   'Sr4 Te4 O12'
_cell_volume   321.30334181
_cell_formula_units_Z   4
loop_
 _symmetry_equiv_pos_site_id
 _symmetry_equiv_pos_as_xyz
  1  'x, y, z'
loop_
 _atom_site_type_symbol
 _atom_site_label
 _atom_site_symmetry_multiplicity
 _atom_site_fract_x
 _atom_site_fract_y
 _atom_site_fract_z
 _atom_site_occupancy
  Sr  Sr0  1  0.94372678  0.26943982  0.64068830  1
  Sr  Sr1  1  0.94468206  0.79874265  0.39309391  1
  Sr  Sr2  1  0.93848109  0.33770895  0.14018320  1
  Sr  Sr3  1  0.46118411  0.83907914  0.13936655  1
  Te  Te4  1  0.44702941  0.30348668  0.38965970  1
  Te  Te5  1  0.43607977  0.80313861  0.63963526  1
  Te  Te6  1  0.44941747  0.29924276  0.89136696  1
  Te  Te7  1  0.94081670  0.79837680  0.89041883  1
  O  O8  1  0.02768510  0.76353419  0.10197280  1
  O  O9  1  0.63739985  0.55290258  0.32705557  1
  O  O10  1  0.52858245  0.32551646  0.64588904  1
  O  O11  1  0.79319495  0.86476612  0.66392881  1
  O  O12  1  0.66196412  0.55354452  0.94451642  1
  O  O13  1  0.71275312  0.11562891  0.34051600  1
  O  O14  1  0.26132894  0.96471721  0.83979720  1
  O  O15  1  0.30345330  0.98290300  0.44425276  1
  O  O16  1  0.72064483  0.09407178  0.94422513  1
  O  O17  1  0.35603234  0.26084238  0.13614181  1
  O  O18  1  0.15387398  0.46781346  0.85831690  1
  O  O19  1  0.16235441  0.42927074  0.41897929  1
