# generated using pymatgen
data_SrZnGe
_symmetry_space_group_name_H-M   'P 1'
_cell_length_a   4.37777948
_cell_length_b   4.36924410
_cell_length_c   4.62981939
_cell_angle_alpha   89.52898407
_cell_angle_beta   89.64662933
_cell_angle_gamma   120.08589935
_symmetry_Int_Tables_number   1
_chemical_formula_structural   SrZnGe
_chemical_formula_sum   'Sr1 Zn1 Ge1'
_cell_volume   76.61837276
_cell_formula_units_Z   1
loop_
 _symmetry_equiv_pos_site_id
 _symmetry_equiv_pos_as_xyz
  1  'x, y, z'
loop_
 _atom_site_type_symbol
 _atom_site_label
 _atom_site_symmetry_multiplicity
 _atom_site_fract_x
 _atom_site_fract_y
 _atom_site_fract_z
 _atom_site_occupancy
  Sr  Sr0  1  0.53290981  0.69064969  0.25639084  1
  Zn  Zn1  1  0.19961609  0.02480779  0.75723034  1
  Ge  Ge2  1  0.86552006  0.35766295  0.75770175  1
