# generated using pymatgen
data_Ta5Ga3
_symmetry_space_group_name_H-M   'P 1'
_cell_length_a   5.58370686
_cell_length_b   7.67651272
_cell_length_c   7.70269299
_cell_angle_alpha   119.70119476
_cell_angle_beta   90.09996033
_cell_angle_gamma   89.98335266
_symmetry_Int_Tables_number   1
_chemical_formula_structural   Ta5Ga3
_chemical_formula_sum   'Ta10 Ga6'
_cell_volume   286.78658467
_cell_formula_units_Z   2
loop_
 _symmetry_equiv_pos_site_id
 _symmetry_equiv_pos_as_xyz
  1  'x, y, z'
loop_
 _atom_site_type_symbol
 _atom_site_label
 _atom_site_symmetry_multiplicity
 _atom_site_fract_x
 _atom_site_fract_y
 _atom_site_fract_z
 _atom_site_occupancy
  Ta  Ta0  1  0.93377465  0.98210037  0.76515007  1
  Ta  Ta1  1  0.47597411  0.02955773  0.51445019  1
  Ta  Ta2  1  0.22429715  0.08613574  0.17315243  1
  Ta  Ta3  1  0.22492321  0.38040543  0.82456809  1
  Ta  Ta4  1  0.72568864  0.07357793  0.17339046  1
  Ta  Ta5  1  0.72412580  0.69100595  0.25909781  1
  Ta  Ta6  1  0.22387424  0.70877123  0.17289759  1
  Ta  Ta7  1  0.47695810  0.73211610  0.82716012  1
  Ta  Ta8  1  0.72421867  0.38914868  0.82914817  1
  Ta  Ta9  1  0.94102007  0.48050711  0.51493120  1
  Ga  Ga10  1  0.97497106  0.08729400  0.48581776  1
  Ga  Ga11  1  0.47538242  0.11394092  0.89262044  1
  Ga  Ga12  1  0.47603792  0.37634966  0.49202558  1
  Ga  Ga13  1  0.22576292  0.73149139  0.50902951  1
  Ga  Ga14  1  0.97526604  0.35185954  0.11416353  1
  Ga  Ga15  1  0.97559863  0.73317885  0.91430247  1
