# generated using pymatgen
data_TaSiRu2
_symmetry_space_group_name_H-M   'P 1'
_cell_length_a   4.32948399
_cell_length_b   4.31644964
_cell_length_c   4.31174469
_cell_angle_alpha   59.65617371
_cell_angle_beta   59.77993011
_cell_angle_gamma   59.75942230
_symmetry_Int_Tables_number   1
_chemical_formula_structural   TaSiRu2
_chemical_formula_sum   'Ta1 Si1 Ru2'
_cell_volume   56.63002456
_cell_formula_units_Z   1
loop_
 _symmetry_equiv_pos_site_id
 _symmetry_equiv_pos_as_xyz
  1  'x, y, z'
loop_
 _atom_site_type_symbol
 _atom_site_label
 _atom_site_symmetry_multiplicity
 _atom_site_fract_x
 _atom_site_fract_y
 _atom_site_fract_z
 _atom_site_occupancy
  Ta  Ta0  1  0.79830933  0.42376572  0.39380255  1
  Si  Si1  1  0.29780450  0.92335427  0.89396280  1
  Ru  Ru2  1  0.54778361  0.17385049  0.14430605  1
  Ru  Ru3  1  0.04834111  0.67404926  0.64406276  1
