# generated using pymatgen
data_TaTiAlC
_symmetry_space_group_name_H-M   'P 1'
_cell_length_a   3.07495117
_cell_length_b   3.09339571
_cell_length_c   13.61847591
_cell_angle_alpha   89.77921295
_cell_angle_beta   90.06636810
_cell_angle_gamma   120.88175201
_symmetry_Int_Tables_number   1
_chemical_formula_structural   TaTiAlC
_chemical_formula_sum   'Ta2 Ti2 Al2 C2'
_cell_volume   111.17360244
_cell_formula_units_Z   2
loop_
 _symmetry_equiv_pos_site_id
 _symmetry_equiv_pos_as_xyz
  1  'x, y, z'
loop_
 _atom_site_type_symbol
 _atom_site_label
 _atom_site_symmetry_multiplicity
 _atom_site_fract_x
 _atom_site_fract_y
 _atom_site_fract_z
 _atom_site_occupancy
  Ta  Ta0  1  0.48005408  0.84420025  0.18653381  1
  Ta  Ta1  1  0.14682032  0.17714496  0.99715006  1
  Ti  Ti2  1  0.81386817  0.51109368  0.68637013  1
  Ti  Ti3  1  0.81352127  0.51124185  0.36439407  1
  Al  Al4  1  0.48005477  0.84459114  0.52519989  1
  Al  Al5  1  0.48006183  0.84426540  0.84086567  1
  C  C6  1  0.81320369  0.51104897  0.08430354  1
  C  C7  1  0.14675175  0.17784938  0.28501153  1
