# generated using pymatgen
data_TaTiNi6
_symmetry_space_group_name_H-M   'P 1'
_cell_length_a   4.20676279
_cell_length_b   5.14427662
_cell_length_c   5.14807558
_cell_angle_alpha   60.02936554
_cell_angle_beta   90.15823364
_cell_angle_gamma   90.19556427
_symmetry_Int_Tables_number   1
_chemical_formula_structural   TaTiNi6
_chemical_formula_sum   'Ta1 Ti1 Ni6'
_cell_volume   96.51025544
_cell_formula_units_Z   1
loop_
 _symmetry_equiv_pos_site_id
 _symmetry_equiv_pos_as_xyz
  1  'x, y, z'
loop_
 _atom_site_type_symbol
 _atom_site_label
 _atom_site_symmetry_multiplicity
 _atom_site_fract_x
 _atom_site_fract_y
 _atom_site_fract_z
 _atom_site_occupancy
  Ta  Ta0  1  0.24739905  0.93262839  0.58509058  1
  Ti  Ti1  1  0.74735528  0.26297575  0.91839612  1
  Ni  Ni2  1  0.24719363  0.43585426  0.08649221  1
  Ni  Ni3  1  0.24697237  0.92534554  0.08725217  1
  Ni  Ni4  1  0.74728572  0.75992608  0.92478949  1
  Ni  Ni5  1  0.74754673  0.75975597  0.41470358  1
  Ni  Ni6  1  0.24688828  0.43594077  0.57806659  1
  Ni  Ni7  1  0.74745983  0.26949674  0.41516912  1
