# generated using pymatgen
data_TaZn2N3
_symmetry_space_group_name_H-M   'P 1'
_cell_length_a   5.29701757
_cell_length_b   5.47636700
_cell_length_c   5.50149775
_cell_angle_alpha   119.54587555
_cell_angle_beta   89.87884521
_cell_angle_gamma   90.00387573
_symmetry_Int_Tables_number   1
_chemical_formula_structural   TaZn2N3
_chemical_formula_sum   'Ta2 Zn4 N6'
_cell_volume   138.83645290
_cell_formula_units_Z   2
loop_
 _symmetry_equiv_pos_site_id
 _symmetry_equiv_pos_as_xyz
  1  'x, y, z'
loop_
 _atom_site_type_symbol
 _atom_site_label
 _atom_site_symmetry_multiplicity
 _atom_site_fract_x
 _atom_site_fract_y
 _atom_site_fract_z
 _atom_site_occupancy
  Ta  Ta0  1  0.01592166  0.35311282  0.14594819  1
  Ta  Ta1  1  0.47064009  0.69455385  0.49018332  1
  Zn  Zn2  1  0.47835919  0.01518919  0.14645936  1
  Zn  Zn3  1  0.47520429  0.35363871  0.81520462  1
  Zn  Zn4  1  0.01927802  0.03156082  0.49123767  1
  Zn  Zn5  1  0.01991327  0.69345433  0.82009077  1
  N  N6  1  0.81164694  0.67547286  0.46574274  1
  N  N7  1  0.27949506  0.36813375  0.46248373  1
  N  N8  1  0.27955616  0.01713323  0.80651885  1
  N  N9  1  0.84736794  0.03653333  0.14937779  1
  N  N10  1  0.27868438  0.67494589  0.15140392  1
  N  N11  1  0.84689528  0.35833296  0.82553101  1
