# generated using pymatgen
data_Tb(Al2Cr)4
_symmetry_space_group_name_H-M   'P 1'
_cell_length_a   5.01737785
_cell_length_b   6.75259733
_cell_length_c   6.82033110
_cell_angle_alpha   82.13024902
_cell_angle_beta   68.31478882
_cell_angle_gamma   68.35035706
_symmetry_Int_Tables_number   1
_chemical_formula_structural   Tb(Al2Cr)4
_chemical_formula_sum   'Tb1 Al8 Cr4'
_cell_volume   199.57432981
_cell_formula_units_Z   1
loop_
 _symmetry_equiv_pos_site_id
 _symmetry_equiv_pos_as_xyz
  1  'x, y, z'
loop_
 _atom_site_type_symbol
 _atom_site_label
 _atom_site_symmetry_multiplicity
 _atom_site_fract_x
 _atom_site_fract_y
 _atom_site_fract_z
 _atom_site_occupancy
  Tb  Tb0  1  0.58712399  0.60636473  0.78527844  1
  Al  Al1  1  0.58324420  0.26351100  0.14287698  1
  Al  Al2  1  0.07756384  0.38936159  0.00931326  1
  Al  Al3  1  0.30567667  0.38654694  0.55715841  1
  Al  Al4  1  0.86440235  0.82805926  0.02702089  1
  Al  Al5  1  0.24294542  0.94286835  0.14254838  1
  Al  Al6  1  0.93695003  0.26255336  0.43312716  1
  Al  Al7  1  0.10228692  0.82741392  0.55617249  1
  Al  Al8  1  0.58597118  0.10276175  0.77233291  1
  Cr  Cr9  1  0.58617717  0.60986423  0.28785411  1
  Cr  Cr10  1  0.58650219  0.96204311  0.42630932  1
  Cr  Cr11  1  0.08326534  0.60835302  0.28736502  1
  Cr  Cr12  1  0.08593406  0.10557197  0.78723782  1
