# generated using pymatgen
data_Tb(MnAl)6
_symmetry_space_group_name_H-M   'P 1'
_cell_length_a   5.01700354
_cell_length_b   6.62940550
_cell_length_c   6.65968752
_cell_angle_alpha   81.35533905
_cell_angle_beta   67.90705109
_cell_angle_gamma   67.82993317
_symmetry_Int_Tables_number   1
_chemical_formula_structural   Tb(MnAl)6
_chemical_formula_sum   'Tb1 Mn6 Al6'
_cell_volume   190.05333399
_cell_formula_units_Z   1
loop_
 _symmetry_equiv_pos_site_id
 _symmetry_equiv_pos_as_xyz
  1  'x, y, z'
loop_
 _atom_site_type_symbol
 _atom_site_label
 _atom_site_symmetry_multiplicity
 _atom_site_fract_x
 _atom_site_fract_y
 _atom_site_fract_z
 _atom_site_occupancy
  Tb  Tb0  1  0.71327174  0.79249805  0.99182642  1
  Mn  Mn1  1  0.21122007  0.56175065  0.21399978  1
  Mn  Mn2  1  0.71324754  0.79279971  0.47990423  1
  Mn  Mn3  1  0.71420032  0.43809226  0.34126619  1
  Mn  Mn4  1  0.71242255  0.29708219  0.98312819  1
  Mn  Mn5  1  0.21301140  0.29674819  0.98261231  1
  Mn  Mn6  1  0.21153152  0.02713605  0.75059354  1
  Al  Al7  1  0.43132389  0.58735120  0.78352642  1
  Al  Al8  1  0.99073893  0.02568173  0.18192883  1
  Al  Al9  1  0.21471927  0.79243308  0.47817281  1
  Al  Al10  1  0.70321560  0.14666325  0.64395219  1
  Al  Al11  1  0.05938033  0.43986043  0.63536763  1
  Al  Al12  1  0.36734197  0.16803910  0.32954633  1
