# generated using pymatgen
data_Tb(ZnP)3
_symmetry_space_group_name_H-M   'P 1'
_cell_length_a   4.04133558
_cell_length_b   4.03130102
_cell_length_c   19.16531754
_cell_angle_alpha   89.86611176
_cell_angle_beta   89.99427795
_cell_angle_gamma   119.66934204
_symmetry_Int_Tables_number   1
_chemical_formula_structural   Tb(ZnP)3
_chemical_formula_sum   'Tb2 Zn6 P6'
_cell_volume   271.30173494
_cell_formula_units_Z   2
loop_
 _symmetry_equiv_pos_site_id
 _symmetry_equiv_pos_as_xyz
  1  'x, y, z'
loop_
 _atom_site_type_symbol
 _atom_site_label
 _atom_site_symmetry_multiplicity
 _atom_site_fract_x
 _atom_site_fract_y
 _atom_site_fract_z
 _atom_site_occupancy
  Tb  Tb0  1  0.67295206  0.25978395  0.26164311  1
  Tb  Tb1  1  0.67286897  0.25956646  0.62144953  1
  Zn  Zn2  1  0.33889961  0.59281796  0.87159020  1
  Zn  Zn3  1  0.00703930  0.92601579  0.75138724  1
  Zn  Zn4  1  0.00578627  0.92645359  0.39397773  1
  Zn  Zn5  1  0.33968648  0.59314722  0.13101760  1
  Zn  Zn6  1  0.00706201  0.92631686  0.99795705  1
  Zn  Zn7  1  0.33867881  0.59290969  0.49518594  1
  P  P8  1  0.33877209  0.59247631  0.70269525  1
  P  P9  1  0.00596442  0.92631531  0.17660360  1
  P  P10  1  0.33954442  0.59296602  0.01496487  1
  P  P11  1  0.00668364  0.92648160  0.86703557  1
  P  P12  1  0.33914849  0.59287453  0.35184366  1
  P  P13  1  0.00754523  0.92641139  0.52873635  1
