# generated using pymatgen
data_Tb2RuRh
_symmetry_space_group_name_H-M   'P 1'
_cell_length_a   4.86294317
_cell_length_b   4.86570454
_cell_length_c   4.86242533
_cell_angle_alpha   59.71450424
_cell_angle_beta   59.85441971
_cell_angle_gamma   59.86031723
_symmetry_Int_Tables_number   1
_chemical_formula_structural   Tb2RuRh
_chemical_formula_sum   'Tb2 Ru1 Rh1'
_cell_volume   81.00306261
_cell_formula_units_Z   1
loop_
 _symmetry_equiv_pos_site_id
 _symmetry_equiv_pos_as_xyz
  1  'x, y, z'
loop_
 _atom_site_type_symbol
 _atom_site_label
 _atom_site_symmetry_multiplicity
 _atom_site_fract_x
 _atom_site_fract_y
 _atom_site_fract_z
 _atom_site_occupancy
  Tb  Tb0  1  0.69366693  0.58366472  0.89945251  1
  Tb  Tb1  1  0.19424957  0.08373134  0.39947176  1
  Ru  Ru2  1  0.94409811  0.83368510  0.14936022  1
  Rh  Rh3  1  0.44441208  0.33367068  0.64914364  1
