# generated using pymatgen
data_Tb3Sc2S7
_symmetry_space_group_name_H-M   'P 1'
_cell_length_a   3.77651024
_cell_length_b   6.73243523
_cell_length_c   11.45044041
_cell_angle_alpha   103.31772614
_cell_angle_beta   90.09268188
_cell_angle_gamma   106.26673126
_symmetry_Int_Tables_number   1
_chemical_formula_structural   Tb3Sc2S7
_chemical_formula_sum   'Tb3 Sc2 S7'
_cell_volume   271.27602420
_cell_formula_units_Z   1
loop_
 _symmetry_equiv_pos_site_id
 _symmetry_equiv_pos_as_xyz
  1  'x, y, z'
loop_
 _atom_site_type_symbol
 _atom_site_label
 _atom_site_symmetry_multiplicity
 _atom_site_fract_x
 _atom_site_fract_y
 _atom_site_fract_z
 _atom_site_occupancy
  Tb  Tb0  1  0.96345353  0.74326348  0.22276565  1
  Tb  Tb1  1  0.35483515  0.52752131  0.83347249  1
  Tb  Tb2  1  0.26394874  0.34969091  0.42872769  1
  Sc  Sc3  1  0.55444032  0.92435074  0.61122447  1
  Sc  Sc4  1  0.68295509  0.17507349  0.11360914  1
  S  S5  1  0.92409772  0.66459441  0.46640375  1
  S  S6  1  0.98263037  0.77472466  0.75072098  1
  S  S7  1  0.60916352  0.03568897  0.34366649  1
  S  S8  1  0.73141026  0.28435299  0.90344822  1
  S  S9  1  0.29962188  0.41046441  0.19479237  1
  S  S10  1  0.49943101  0.81868982  0.05133997  1
  S  S11  1  0.19485104  0.21091066  0.62625968  1
