# generated using pymatgen
data_Tb6IrI10
_symmetry_space_group_name_H-M   'P 1'
_cell_length_a   7.77283907
_cell_length_b   9.84014320
_cell_length_c   9.89352989
_cell_angle_alpha   108.14814758
_cell_angle_beta   97.28454590
_cell_angle_gamma   105.88527679
_symmetry_Int_Tables_number   1
_chemical_formula_structural   Tb6IrI10
_chemical_formula_sum   'Tb6 Ir1 I10'
_cell_volume   672.73943764
_cell_formula_units_Z   1
loop_
 _symmetry_equiv_pos_site_id
 _symmetry_equiv_pos_as_xyz
  1  'x, y, z'
loop_
 _atom_site_type_symbol
 _atom_site_label
 _atom_site_symmetry_multiplicity
 _atom_site_fract_x
 _atom_site_fract_y
 _atom_site_fract_z
 _atom_site_occupancy
  Tb  Tb0  1  0.79662389  0.67659873  0.58354270  1
  Tb  Tb1  1  0.46312186  0.56967175  0.11208574  1
  Tb  Tb2  1  0.16900255  0.51332790  0.66751480  1
  Tb  Tb3  1  0.02793113  0.77271372  0.98747826  1
  Tb  Tb4  1  0.49315241  0.93058431  0.91375679  1
  Tb  Tb5  1  0.24939273  0.84888273  0.52084273  1
  Ir  Ir6  1  0.14381176  0.79156762  0.74695724  1
  I  I7  1  0.22449589  0.17177406  0.56798989  1
  I  I8  1  0.06599452  0.44230014  0.93174559  1
  I  I9  1  0.40479323  0.88924563  0.21176726  1
  I  I10  1  0.93541420  0.06678145  0.10134249  1
  I  I11  1  0.86931407  0.71621579  0.28492826  1
  I  I12  1  0.34551531  0.53534889  0.39221519  1
  I  I13  1  0.68404114  0.98285389  0.65733427  1
  I  I14  1  0.50925356  0.26135334  0.02613415  1
  I  I15  1  0.78485090  0.34829757  0.47758353  1
  I  I16  1  0.59526956  0.62174851  0.83682948  1
