# generated using pymatgen
data_TbAlAg2
_symmetry_space_group_name_H-M   'P 1'
_cell_length_a   4.86268663
_cell_length_b   4.86380100
_cell_length_c   4.85654402
_cell_angle_alpha   59.60911560
_cell_angle_beta   59.78433609
_cell_angle_gamma   60.17033005
_symmetry_Int_Tables_number   1
_chemical_formula_structural   TbAlAg2
_chemical_formula_sum   'Tb1 Al1 Ag2'
_cell_volume   80.94817046
_cell_formula_units_Z   1
loop_
 _symmetry_equiv_pos_site_id
 _symmetry_equiv_pos_as_xyz
  1  'x, y, z'
loop_
 _atom_site_type_symbol
 _atom_site_label
 _atom_site_symmetry_multiplicity
 _atom_site_fract_x
 _atom_site_fract_y
 _atom_site_fract_z
 _atom_site_occupancy
  Tb  Tb0  1  0.63619012  0.92766571  0.78652644  1
  Al  Al1  1  0.13622046  0.42753503  0.28657338  1
  Ag  Ag2  1  0.88562542  0.17760094  0.03653000  1
  Ag  Ag3  1  0.38552818  0.67784154  0.53666759  1
