# generated using pymatgen
data_TbC2
_symmetry_space_group_name_H-M   'P 1'
_cell_length_a   3.83555651
_cell_length_b   4.12192011
_cell_length_c   3.74379945
_cell_angle_alpha   117.12660980
_cell_angle_beta   90.50051880
_cell_angle_gamma   117.45807648
_symmetry_Int_Tables_number   1
_chemical_formula_structural   TbC2
_chemical_formula_sum   'Tb1 C2'
_cell_volume   44.91109754
_cell_formula_units_Z   1
loop_
 _symmetry_equiv_pos_site_id
 _symmetry_equiv_pos_as_xyz
  1  'x, y, z'
loop_
 _atom_site_type_symbol
 _atom_site_label
 _atom_site_symmetry_multiplicity
 _atom_site_fract_x
 _atom_site_fract_y
 _atom_site_fract_z
 _atom_site_occupancy
  Tb  Tb0  1  0.73607320  0.92071241  0.18872370  1
  C  C1  1  0.33887202  0.13309932  0.79563737  1
  C  C2  1  0.13244388  0.71391004  0.59079146  1
