# generated using pymatgen
data_TbCdPd2
_symmetry_space_group_name_H-M   'P 1'
_cell_length_a   4.80709553
_cell_length_b   4.80443668
_cell_length_c   4.80818748
_cell_angle_alpha   60.14887619
_cell_angle_beta   59.95095825
_cell_angle_gamma   60.04562378
_symmetry_Int_Tables_number   1
_chemical_formula_structural   TbCdPd2
_chemical_formula_sum   'Tb1 Cd1 Pd2'
_cell_volume   78.60787307
_cell_formula_units_Z   1
loop_
 _symmetry_equiv_pos_site_id
 _symmetry_equiv_pos_as_xyz
  1  'x, y, z'
loop_
 _atom_site_type_symbol
 _atom_site_label
 _atom_site_symmetry_multiplicity
 _atom_site_fract_x
 _atom_site_fract_y
 _atom_site_fract_z
 _atom_site_occupancy
  Tb  Tb0  1  0.40006897  0.38862365  0.82571894  1
  Cd  Cd1  1  0.90018600  0.88862771  0.32553160  1
  Pd  Pd2  1  0.15009919  0.13905646  0.57565272  1
  Pd  Pd3  1  0.65041226  0.63885933  0.07565954  1
