# generated using pymatgen
data_TbErRh2
_symmetry_space_group_name_H-M   'P 1'
_cell_length_a   4.86386681
_cell_length_b   4.86578178
_cell_length_c   4.86301708
_cell_angle_alpha   60.03673172
_cell_angle_beta   60.15139771
_cell_angle_gamma   60.10287094
_symmetry_Int_Tables_number   1
_chemical_formula_structural   TbErRh2
_chemical_formula_sum   'Tb1 Er1 Rh2'
_cell_volume   81.56009214
_cell_formula_units_Z   1
loop_
 _symmetry_equiv_pos_site_id
 _symmetry_equiv_pos_as_xyz
  1  'x, y, z'
loop_
 _atom_site_type_symbol
 _atom_site_label
 _atom_site_symmetry_multiplicity
 _atom_site_fract_x
 _atom_site_fract_y
 _atom_site_fract_z
 _atom_site_occupancy
  Tb  Tb0  1  0.00536381  0.66871089  0.99569196  1
  Er  Er1  1  0.50519025  0.16866431  0.49584961  1
  Rh  Rh2  1  0.75532234  0.41914728  0.74507046  1
  Rh  Rh3  1  0.25550550  0.91906399  0.24575643  1
