# generated using pymatgen
data_TbMgAu2
_symmetry_space_group_name_H-M   'P 1'
_cell_length_a   4.91344357
_cell_length_b   4.90879822
_cell_length_c   4.90896082
_cell_angle_alpha   59.80538559
_cell_angle_beta   59.96944427
_cell_angle_gamma   59.91222763
_symmetry_Int_Tables_number   1
_chemical_formula_structural   TbMgAu2
_chemical_formula_sum   'Tb1 Mg1 Au2'
_cell_volume   83.52276380
_cell_formula_units_Z   1
loop_
 _symmetry_equiv_pos_site_id
 _symmetry_equiv_pos_as_xyz
  1  'x, y, z'
loop_
 _atom_site_type_symbol
 _atom_site_label
 _atom_site_symmetry_multiplicity
 _atom_site_fract_x
 _atom_site_fract_y
 _atom_site_fract_z
 _atom_site_occupancy
  Tb  Tb0  1  0.91391826  0.04013721  0.36081144  1
  Mg  Mg1  1  0.41411686  0.54058075  0.85998929  1
  Au  Au2  1  0.16441007  0.29092741  0.60999995  1
  Au  Au3  1  0.66420722  0.79054439  0.11039537  1
