# generated using pymatgen
data_TbNdFe17
_symmetry_space_group_name_H-M   'P 1'
_cell_length_a   6.50247812
_cell_length_b   6.53047085
_cell_length_c   6.52900839
_cell_angle_alpha   83.71852112
_cell_angle_beta   83.47473145
_cell_angle_gamma   83.49771881
_symmetry_Int_Tables_number   1
_chemical_formula_structural   TbNdFe17
_chemical_formula_sum   'Tb1 Nd1 Fe17'
_cell_volume   272.36936739
_cell_formula_units_Z   1
loop_
 _symmetry_equiv_pos_site_id
 _symmetry_equiv_pos_as_xyz
  1  'x, y, z'
loop_
 _atom_site_type_symbol
 _atom_site_label
 _atom_site_symmetry_multiplicity
 _atom_site_fract_x
 _atom_site_fract_y
 _atom_site_fract_z
 _atom_site_occupancy
  Tb  Tb0  1  0.73525387  0.48805833  0.50417417  1
  Nd  Nd1  1  0.23183504  0.98897952  0.00465896  1
  Fe  Fe2  1  0.73433667  0.98882121  0.50233930  1
  Fe  Fe3  1  0.09081902  0.48796454  0.15386926  1
  Fe  Fe4  1  0.59225702  0.80096477  0.81503880  1
  Fe  Fe5  1  0.48296350  0.23594196  0.25260597  1
  Fe  Fe6  1  0.38425940  0.48821476  0.86098403  1
  Fe  Fe7  1  0.73548263  0.48854282  0.00444320  1
  Fe  Fe8  1  0.38538745  0.84341043  0.50331616  1
  Fe  Fe9  1  0.04775200  0.80049974  0.36215547  1
  Fe  Fe10  1  0.73537958  0.84328640  0.15246099  1
  Fe  Fe11  1  0.88199043  0.17700699  0.18881887  1
  Fe  Fe12  1  0.73382115  0.13738704  0.86031592  1
  Fe  Fe13  1  0.98636830  0.74021304  0.75716430  1
  Fe  Fe14  1  0.23651716  0.48914498  0.50350797  1
  Fe  Fe15  1  0.42659894  0.63523692  0.19034438  1
  Fe  Fe16  1  0.42531398  0.17692718  0.64869016  1
  Fe  Fe17  1  0.04783522  0.34416398  0.81412154  1
  Fe  Fe18  1  0.09038046  0.13728352  0.50327635  1
