# generated using pymatgen
data_TbTiGe
_symmetry_space_group_name_H-M   'P 1'
_cell_length_a   4.05813932
_cell_length_b   4.10673141
_cell_length_c   8.48664474
_cell_angle_alpha   103.84289551
_cell_angle_beta   103.64529419
_cell_angle_gamma   89.92447662
_symmetry_Int_Tables_number   1
_chemical_formula_structural   TbTiGe
_chemical_formula_sum   'Tb2 Ti2 Ge2'
_cell_volume   133.22377560
_cell_formula_units_Z   2
loop_
 _symmetry_equiv_pos_site_id
 _symmetry_equiv_pos_as_xyz
  1  'x, y, z'
loop_
 _atom_site_type_symbol
 _atom_site_label
 _atom_site_symmetry_multiplicity
 _atom_site_fract_x
 _atom_site_fract_y
 _atom_site_fract_z
 _atom_site_occupancy
  Tb  Tb0  1  0.45879561  0.23621029  0.80544788  1
  Tb  Tb1  1  0.21144927  0.48613554  0.30469215  1
  Ti  Ti2  1  0.04522505  0.82036966  0.97447079  1
  Ti  Ti3  1  0.79553854  0.07227135  0.47477865  1
  Ge  Ge4  1  0.63445556  0.91102892  0.15405807  1
  Ge  Ge5  1  0.87925887  0.65399885  0.64417082  1
