# generated using pymatgen
data_TbVO4
_symmetry_space_group_name_H-M   'P 1'
_cell_length_a   6.04252720
_cell_length_b   6.06945419
_cell_length_c   6.04097033
_cell_angle_alpha   105.89086151
_cell_angle_beta   105.92870331
_cell_angle_gamma   117.15596771
_symmetry_Int_Tables_number   1
_chemical_formula_structural   TbVO4
_chemical_formula_sum   'Tb2 V2 O8'
_cell_volume   167.67892991
_cell_formula_units_Z   2
loop_
 _symmetry_equiv_pos_site_id
 _symmetry_equiv_pos_as_xyz
  1  'x, y, z'
loop_
 _atom_site_type_symbol
 _atom_site_label
 _atom_site_symmetry_multiplicity
 _atom_site_fract_x
 _atom_site_fract_y
 _atom_site_fract_z
 _atom_site_occupancy
  Tb  Tb0  1  0.43080881  0.45342481  0.36309853  1
  Tb  Tb1  1  0.68057221  0.20506375  0.86231107  1
  V  V2  1  0.93040371  0.95403177  0.36301282  1
  V  V3  1  0.18001199  0.70374990  0.86276317  1
  O  O4  1  0.29376942  0.13213906  0.54269409  1
  O  O5  1  0.92358541  0.13125393  0.17977689  1
  O  O6  1  0.35725975  0.69672221  0.67970467  1
  O  O7  1  0.81873721  0.52310848  0.67922479  1
  O  O8  1  0.75410509  0.95874113  0.54253674  1
  O  O9  1  0.18770123  0.52309650  0.04253750  1
  O  O10  1  0.35674006  0.06014528  0.04273645  1
  O  O11  1  0.75417024  0.59139711  0.18016291  1
