# generated using pymatgen
data_Tc2P3
_symmetry_space_group_name_H-M   'P 1'
_cell_length_a   5.78148746
_cell_length_b   6.32545853
_cell_length_c   9.43178272
_cell_angle_alpha   102.88413239
_cell_angle_beta   99.51522827
_cell_angle_gamma   111.66545105
_symmetry_Int_Tables_number   1
_chemical_formula_structural   Tc2P3
_chemical_formula_sum   'Tc8 P12'
_cell_volume   300.58772381
_cell_formula_units_Z   4
loop_
 _symmetry_equiv_pos_site_id
 _symmetry_equiv_pos_as_xyz
  1  'x, y, z'
loop_
 _atom_site_type_symbol
 _atom_site_label
 _atom_site_symmetry_multiplicity
 _atom_site_fract_x
 _atom_site_fract_y
 _atom_site_fract_z
 _atom_site_occupancy
  Tc  Tc0  1  0.15861867  0.51926613  0.12217424  1
  Tc  Tc1  1  0.29054281  0.85380834  0.79552025  1
  Tc  Tc2  1  0.45360088  0.76299065  0.51486576  1
  Tc  Tc3  1  0.95073545  0.20126966  0.73550564  1
  Tc  Tc4  1  0.72109616  0.69083768  0.28773639  1
  Tc  Tc5  1  0.55431563  0.50545406  0.90496165  1
  Tc  Tc6  1  0.95052564  0.12274038  0.18346943  1
  Tc  Tc7  1  0.15720280  0.11420442  0.49300137  1
  P  P8  1  0.51656187  0.16615896  0.68449950  1
  P  P9  1  0.01455319  0.50328571  0.37853399  1
  P  P10  1  0.50556368  0.82095820  0.06902398  1
  P  P11  1  0.43704498  0.34994003  0.35964805  1
  P  P12  1  0.31116092  0.50406075  0.66762799  1
  P  P13  1  0.69447392  0.32662860  0.09866340  1
  P  P14  1  0.89670211  0.77810317  0.58982086  1
  P  P15  1  0.97458720  0.57734752  0.88047129  1
  P  P16  1  0.23586594  0.17722963  0.98703831  1
  P  P17  1  0.72818834  0.08423694  0.42353961  1
  P  P18  1  0.77709919  0.93938535  0.87528980  1
  P  P19  1  0.16469118  0.88176090  0.24829328  1
