# generated using pymatgen
data_TeMo2SeS2
_symmetry_space_group_name_H-M   'P 1'
_cell_length_a   3.32522798
_cell_length_b   3.18821144
_cell_length_c   35.49214172
_cell_angle_alpha   89.86373901
_cell_angle_beta   89.99011993
_cell_angle_gamma   121.25882721
_symmetry_Int_Tables_number   1
_chemical_formula_structural   TeMo2SeS2
_chemical_formula_sum   'Te2 Mo4 Se2 S4'
_cell_volume   321.64712327
_cell_formula_units_Z   2
loop_
 _symmetry_equiv_pos_site_id
 _symmetry_equiv_pos_as_xyz
  1  'x, y, z'
loop_
 _atom_site_type_symbol
 _atom_site_label
 _atom_site_symmetry_multiplicity
 _atom_site_fract_x
 _atom_site_fract_y
 _atom_site_fract_z
 _atom_site_occupancy
  Te  Te0  1  0.21171598  0.27831686  0.94177437  1
  Te  Te1  1  0.87677401  0.61135179  0.13348526  1
  Mo  Mo2  1  0.87807757  0.61125058  0.27677017  1
  Mo  Mo3  1  0.87721920  0.61205906  0.89378935  1
  Mo  Mo4  1  0.21068403  0.27844015  0.08550940  1
  Mo  Mo5  1  0.21086855  0.27803552  0.46308345  1
  Se  Se6  1  0.87665254  0.61129981  0.04015848  1
  Se  Se7  1  0.21072046  0.27842060  0.84670269  1
  S  S8  1  0.21131045  0.27813637  0.31584701  1
  S  S9  1  0.87782383  0.61167186  0.50565803  1
  S  S10  1  0.21063587  0.27811778  0.23456915  1
  S  S11  1  0.87662721  0.61135513  0.42145669  1
