# generated using pymatgen
data_Th2Pd
_symmetry_space_group_name_H-M   'P 1'
_cell_length_a   5.23885202
_cell_length_b   5.31018353
_cell_length_c   6.60759020
_cell_angle_alpha   65.37084961
_cell_angle_beta   89.81549072
_cell_angle_gamma   89.70311737
_symmetry_Int_Tables_number   1
_chemical_formula_structural   Th2Pd
_chemical_formula_sum   'Th4 Pd2'
_cell_volume   167.09293292
_cell_formula_units_Z   2
loop_
 _symmetry_equiv_pos_site_id
 _symmetry_equiv_pos_as_xyz
  1  'x, y, z'
loop_
 _atom_site_type_symbol
 _atom_site_label
 _atom_site_symmetry_multiplicity
 _atom_site_fract_x
 _atom_site_fract_y
 _atom_site_fract_z
 _atom_site_occupancy
  Th  Th0  1  0.04592948  0.85409439  0.22248420  1
  Th  Th1  1  0.54518026  0.35346535  0.22237732  1
  Th  Th2  1  0.04588648  0.55044383  0.82118928  1
  Th  Th3  1  0.54520589  0.05088574  0.82099152  1
  Pd  Pd4  1  0.04642326  0.19385394  0.52670735  1
  Pd  Pd5  1  0.54632294  0.69206601  0.52591419  1
