# generated using pymatgen
data_Th3N4
_symmetry_space_group_name_H-M   'P 1'
_cell_length_a   4.31251574
_cell_length_b   4.51400423
_cell_length_c   6.89802074
_cell_angle_alpha   108.75187683
_cell_angle_beta   107.90528870
_cell_angle_gamma   89.97912598
_symmetry_Int_Tables_number   1
_chemical_formula_structural   Th3N4
_chemical_formula_sum   'Th3 N4'
_cell_volume   120.27081220
_cell_formula_units_Z   1
loop_
 _symmetry_equiv_pos_site_id
 _symmetry_equiv_pos_as_xyz
  1  'x, y, z'
loop_
 _atom_site_type_symbol
 _atom_site_label
 _atom_site_symmetry_multiplicity
 _atom_site_fract_x
 _atom_site_fract_y
 _atom_site_fract_z
 _atom_site_occupancy
  Th  Th0  1  0.93754494  0.28300312  0.10465191  1
  Th  Th1  1  0.25445566  0.59990495  0.74442166  1
  Th  Th2  1  0.59214860  0.93262970  0.41216007  1
  N  N3  1  0.86511397  0.70859927  0.95539635  1
  N  N4  1  0.33525723  0.17840245  0.90471601  1
  N  N5  1  0.09158989  0.93059355  0.41687146  1
  N  N6  1  0.61044478  0.45348763  0.45083040  1
