# generated using pymatgen
data_ThCdAu2
_symmetry_space_group_name_H-M   'P 1'
_cell_length_a   5.10007477
_cell_length_b   5.10032034
_cell_length_c   5.09216547
_cell_angle_alpha   59.82455826
_cell_angle_beta   59.92762756
_cell_angle_gamma   60.08602905
_symmetry_Int_Tables_number   1
_chemical_formula_structural   ThCdAu2
_chemical_formula_sum   'Th1 Cd1 Au2'
_cell_volume   93.54603706
_cell_formula_units_Z   1
loop_
 _symmetry_equiv_pos_site_id
 _symmetry_equiv_pos_as_xyz
  1  'x, y, z'
loop_
 _atom_site_type_symbol
 _atom_site_label
 _atom_site_symmetry_multiplicity
 _atom_site_fract_x
 _atom_site_fract_y
 _atom_site_fract_z
 _atom_site_occupancy
  Th  Th0  1  0.37336782  0.11025116  0.59080696  1
  Cd  Cd1  1  0.87373453  0.61008435  0.09053195  1
  Au  Au2  1  0.12366722  0.86044776  0.34027252  1
  Au  Au3  1  0.62414956  0.36059901  0.84038150  1
