# generated using pymatgen
data_ThPSe
_symmetry_space_group_name_H-M   'P 1'
_cell_length_a   4.04919624
_cell_length_b   4.03256655
_cell_length_c   8.61315632
_cell_angle_alpha   89.77272797
_cell_angle_beta   89.78152466
_cell_angle_gamma   89.87789154
_symmetry_Int_Tables_number   1
_chemical_formula_structural   ThPSe
_chemical_formula_sum   'Th2 P2 Se2'
_cell_volume   140.63879970
_cell_formula_units_Z   2
loop_
 _symmetry_equiv_pos_site_id
 _symmetry_equiv_pos_as_xyz
  1  'x, y, z'
loop_
 _atom_site_type_symbol
 _atom_site_label
 _atom_site_symmetry_multiplicity
 _atom_site_fract_x
 _atom_site_fract_y
 _atom_site_fract_z
 _atom_site_occupancy
  Th  Th0  1  0.51821065  0.03852746  0.20601431  1
  Th  Th1  1  0.01826491  0.53724253  0.70724148  1
  P  P2  1  0.01833598  0.03782035  0.95429689  1
  P  P3  1  0.51822317  0.53807205  0.95480359  1
  Se  Se4  1  0.51822805  0.03795610  0.58462399  1
  Se  Se5  1  0.01844417  0.53787857  0.33158615  1
