# generated using pymatgen
data_ThSeO
_symmetry_space_group_name_H-M   'P 1'
_cell_length_a   4.08071280
_cell_length_b   4.09696007
_cell_length_c   7.16414309
_cell_angle_alpha   89.92687225
_cell_angle_beta   90.14850616
_cell_angle_gamma   90.02783203
_symmetry_Int_Tables_number   1
_chemical_formula_structural   ThSeO
_chemical_formula_sum   'Th2 Se2 O2'
_cell_volume   119.77333680
_cell_formula_units_Z   2
loop_
 _symmetry_equiv_pos_site_id
 _symmetry_equiv_pos_as_xyz
  1  'x, y, z'
loop_
 _atom_site_type_symbol
 _atom_site_label
 _atom_site_symmetry_multiplicity
 _atom_site_fract_x
 _atom_site_fract_y
 _atom_site_fract_z
 _atom_site_occupancy
  Th  Th0  1  0.73340446  0.85207731  0.33145908  1
  Th  Th1  1  0.23352274  0.35176381  0.68857688  1
  Se  Se2  1  0.73340982  0.85223770  0.87207007  1
  Se  Se3  1  0.23365453  0.35203421  0.14183736  1
  O  O4  1  0.73360854  0.35248864  0.50694495  1
  O  O5  1  0.23356478  0.85267419  0.50762230  1
