# generated using pymatgen
data_Ti(FeO2)2
_symmetry_space_group_name_H-M   'P 1'
_cell_length_a   6.01495743
_cell_length_b   6.11782551
_cell_length_c   6.12696218
_cell_angle_alpha   91.99482727
_cell_angle_beta   118.31172180
_cell_angle_gamma   119.51151276
_symmetry_Int_Tables_number   1
_chemical_formula_structural   Ti(FeO2)2
_chemical_formula_sum   'Ti2 Fe4 O8'
_cell_volume   161.79056754
_cell_formula_units_Z   2
loop_
 _symmetry_equiv_pos_site_id
 _symmetry_equiv_pos_as_xyz
  1  'x, y, z'
loop_
 _atom_site_type_symbol
 _atom_site_label
 _atom_site_symmetry_multiplicity
 _atom_site_fract_x
 _atom_site_fract_y
 _atom_site_fract_z
 _atom_site_occupancy
  Ti  Ti0  1  0.87961423  0.93981004  0.86189651  1
  Ti  Ti1  1  0.38032678  0.94025642  0.86098272  1
  Fe  Fe2  1  0.12930647  0.56438243  0.23410000  1
  Fe  Fe3  1  0.62861252  0.31277192  0.48771051  1
  Fe  Fe4  1  0.88068688  0.94071358  0.36224052  1
  Fe  Fe5  1  0.38054204  0.43980408  0.86190021  1
  O  O6  1  0.91239285  0.71778005  0.63552755  1
  O  O7  1  0.38835862  0.70744807  0.09181634  1
  O  O8  1  0.86837065  0.16932176  0.09124082  1
  O  O9  1  0.41500175  0.71344990  0.63878322  1
  O  O10  1  0.90175873  0.17912999  0.63282877  1
  O  O11  1  0.87139535  0.71033466  0.09021368  1
  O  O12  1  0.36790892  0.17250799  0.08612306  1
  O  O13  1  0.36992210  0.17698409  0.63306123  1
