# generated using pymatgen
data_Ti2CoIr
_symmetry_space_group_name_H-M   'P 1'
_cell_length_a   4.35056114
_cell_length_b   4.33994246
_cell_length_c   4.33924627
_cell_angle_alpha   59.78976822
_cell_angle_beta   60.02559662
_cell_angle_gamma   60.14701080
_symmetry_Int_Tables_number   1
_chemical_formula_structural   Ti2CoIr
_chemical_formula_sum   'Ti2 Co1 Ir1'
_cell_volume   57.91569968
_cell_formula_units_Z   1
loop_
 _symmetry_equiv_pos_site_id
 _symmetry_equiv_pos_as_xyz
  1  'x, y, z'
loop_
 _atom_site_type_symbol
 _atom_site_label
 _atom_site_symmetry_multiplicity
 _atom_site_fract_x
 _atom_site_fract_y
 _atom_site_fract_z
 _atom_site_occupancy
  Ti  Ti0  1  0.08955357  0.67661607  0.31992713  1
  Ti  Ti1  1  0.58931917  0.17641385  0.81997472  1
  Co  Co2  1  0.83924168  0.42708802  0.07071483  1
  Ir  Ir3  1  0.33961254  0.92645091  0.57039988  1
