# generated using pymatgen
data_Ti2CuIr
_symmetry_space_group_name_H-M   'P 1'
_cell_length_a   4.33489180
_cell_length_b   4.34355974
_cell_length_c   4.33013964
_cell_angle_alpha   59.72782898
_cell_angle_beta   59.82956696
_cell_angle_gamma   59.94723511
_symmetry_Int_Tables_number   1
_chemical_formula_structural   Ti2CuIr
_chemical_formula_sum   'Ti2 Cu1 Ir1'
_cell_volume   57.43506667
_cell_formula_units_Z   1
loop_
 _symmetry_equiv_pos_site_id
 _symmetry_equiv_pos_as_xyz
  1  'x, y, z'
loop_
 _atom_site_type_symbol
 _atom_site_label
 _atom_site_symmetry_multiplicity
 _atom_site_fract_x
 _atom_site_fract_y
 _atom_site_fract_z
 _atom_site_occupancy
  Ti  Ti0  1  0.15281193  0.54140872  0.94069868  1
  Ti  Ti1  1  0.65304756  0.04101333  0.44041553  1
  Cu  Cu2  1  0.40359005  0.79187590  0.19022588  1
  Ir  Ir3  1  0.90338892  0.29146874  0.69042611  1
