# generated using pymatgen
data_Ti2InC
_symmetry_space_group_name_H-M   'P 1'
_cell_length_a   3.15290928
_cell_length_b   3.14420342
_cell_length_c   14.04638386
_cell_angle_alpha   89.98760223
_cell_angle_beta   90.04496765
_cell_angle_gamma   120.89146423
_symmetry_Int_Tables_number   1
_chemical_formula_structural   Ti2InC
_chemical_formula_sum   'Ti4 In2 C2'
_cell_volume   119.49379529
_cell_formula_units_Z   2
loop_
 _symmetry_equiv_pos_site_id
 _symmetry_equiv_pos_as_xyz
  1  'x, y, z'
loop_
 _atom_site_type_symbol
 _atom_site_label
 _atom_site_symmetry_multiplicity
 _atom_site_fract_x
 _atom_site_fract_y
 _atom_site_fract_z
 _atom_site_occupancy
  Ti  Ti0  1  0.91724777  0.60369784  0.81381953  1
  Ti  Ti1  1  0.91708964  0.60381246  0.47232777  1
  Ti  Ti2  1  0.25067016  0.27054769  0.31387168  1
  Ti  Ti3  1  0.25057214  0.27041808  0.97283167  1
  In  In4  1  0.25055334  0.27034846  0.64330262  1
  In  In5  1  0.91775870  0.60418135  0.14315034  1
  C  C6  1  0.58301461  0.93688118  0.39506724  1
  C  C7  1  0.58427972  0.93719065  0.89527088  1
