# generated using pymatgen
data_Ti2TcIr
_symmetry_space_group_name_H-M   'P 1'
_cell_length_a   4.41960335
_cell_length_b   4.42557049
_cell_length_c   4.39724970
_cell_angle_alpha   59.50906372
_cell_angle_beta   59.59340668
_cell_angle_gamma   60.04266739
_symmetry_Int_Tables_number   1
_chemical_formula_structural   Ti2TcIr
_chemical_formula_sum   'Ti2 Tc1 Ir1'
_cell_volume   60.41944422
_cell_formula_units_Z   1
loop_
 _symmetry_equiv_pos_site_id
 _symmetry_equiv_pos_as_xyz
  1  'x, y, z'
loop_
 _atom_site_type_symbol
 _atom_site_label
 _atom_site_symmetry_multiplicity
 _atom_site_fract_x
 _atom_site_fract_y
 _atom_site_fract_z
 _atom_site_occupancy
  Ti  Ti0  1  0.55335587  0.75802094  0.35439730  1
  Ti  Ti1  1  0.05348624  0.25777555  0.85445446  1
  Tc  Tc2  1  0.80339795  0.00872703  0.60451978  1
  Ir  Ir3  1  0.30325678  0.50830126  0.10469975  1
