# generated using pymatgen
data_Ti3Sb
_symmetry_space_group_name_H-M   'P 1'
_cell_length_a   4.77723980
_cell_length_b   5.83267355
_cell_length_c   5.82413816
_cell_angle_alpha   119.11035919
_cell_angle_beta   89.95298767
_cell_angle_gamma   89.93138885
_symmetry_Int_Tables_number   1
_chemical_formula_structural   Ti3Sb
_chemical_formula_sum   'Ti6 Sb2'
_cell_volume   141.78491599
_cell_formula_units_Z   2
loop_
 _symmetry_equiv_pos_site_id
 _symmetry_equiv_pos_as_xyz
  1  'x, y, z'
loop_
 _atom_site_type_symbol
 _atom_site_label
 _atom_site_symmetry_multiplicity
 _atom_site_fract_x
 _atom_site_fract_y
 _atom_site_fract_z
 _atom_site_occupancy
  Ti  Ti0  1  0.60348570  0.52775633  0.72522897  1
  Ti  Ti1  1  0.60333198  0.02935772  0.22349393  1
  Ti  Ti2  1  0.60295874  0.02894226  0.72485703  1
  Ti  Ti3  1  0.10335431  0.85899496  0.39307246  1
  Ti  Ti4  1  0.10315219  0.36016032  0.89288819  1
  Ti  Ti5  1  0.60338432  0.52845979  0.22360165  1
  Sb  Sb6  1  0.10300023  0.35762426  0.39365998  1
  Sb  Sb7  1  0.10290729  0.85810024  0.89342755  1
