# generated using pymatgen
data_Ti4CoBi2
_symmetry_space_group_name_H-M   'P 1'
_cell_length_a   6.69163609
_cell_length_b   7.12092638
_cell_length_c   7.07209253
_cell_angle_alpha   109.22491455
_cell_angle_beta   107.38533020
_cell_angle_gamma   110.37119293
_symmetry_Int_Tables_number   1
_chemical_formula_structural   Ti4CoBi2
_chemical_formula_sum   'Ti8 Co2 Bi4'
_cell_volume   263.76333677
_cell_formula_units_Z   2
loop_
 _symmetry_equiv_pos_site_id
 _symmetry_equiv_pos_as_xyz
  1  'x, y, z'
loop_
 _atom_site_type_symbol
 _atom_site_label
 _atom_site_symmetry_multiplicity
 _atom_site_fract_x
 _atom_site_fract_y
 _atom_site_fract_z
 _atom_site_occupancy
  Ti  Ti0  1  0.46097878  0.66134453  0.45184910  1
  Ti  Ti1  1  0.34580702  0.31062317  0.92387772  1
  Ti  Ti2  1  0.39077058  0.78655893  0.85390145  1
  Ti  Ti3  1  0.95705849  0.52150190  0.42097345  1
  Ti  Ti4  1  0.22837502  0.99488103  0.47809330  1
  Ti  Ti5  1  0.84599960  0.15511553  0.60009181  1
  Ti  Ti6  1  0.95940393  0.15330262  0.11372913  1
  Ti  Ti7  1  0.65489370  0.47200376  0.74557471  1
  Co  Co8  1  0.59243822  0.10797558  0.79714620  1
  Co  Co9  1  0.22548623  0.37376803  0.56404674  1
  Bi  Bi10  1  0.47733381  0.21541873  0.28589937  1
  Bi  Bi11  1  0.09441725  0.54832315  0.05708568  1
  Bi  Bi12  1  0.72790784  0.77339160  0.18941621  1
  Bi  Bi13  1  0.97551346  0.86884081  0.74643403  1
