# generated using pymatgen
data_Ti4Pd
_symmetry_space_group_name_H-M   'P 1'
_cell_length_a   4.39597225
_cell_length_b   4.62329912
_cell_length_c   4.64976406
_cell_angle_alpha   110.17400360
_cell_angle_beta   89.54548645
_cell_angle_gamma   89.86575317
_symmetry_Int_Tables_number   1
_chemical_formula_structural   Ti4Pd
_chemical_formula_sum   'Ti4 Pd1'
_cell_volume   88.69953157
_cell_formula_units_Z   1
loop_
 _symmetry_equiv_pos_site_id
 _symmetry_equiv_pos_as_xyz
  1  'x, y, z'
loop_
 _atom_site_type_symbol
 _atom_site_label
 _atom_site_symmetry_multiplicity
 _atom_site_fract_x
 _atom_site_fract_y
 _atom_site_fract_z
 _atom_site_occupancy
  Ti  Ti0  1  0.17002024  0.76920319  0.80216962  1
  Ti  Ti1  1  0.66984087  0.11030400  0.95849609  1
  Ti  Ti2  1  0.16995673  0.27055219  0.30279019  1
  Ti  Ti3  1  0.67015588  0.76939613  0.30314863  1
  Pd  Pd4  1  0.67039704  0.43311542  0.63752246  1
