# generated using pymatgen
data_Ti5MnSb2
_symmetry_space_group_name_H-M   'P 1'
_cell_length_a   5.22413301
_cell_length_b   7.93485308
_cell_length_c   7.96275806
_cell_angle_alpha   83.81999207
_cell_angle_beta   70.77743530
_cell_angle_gamma   70.73125458
_symmetry_Int_Tables_number   1
_chemical_formula_structural   Ti5MnSb2
_chemical_formula_sum   'Ti10 Mn2 Sb4'
_cell_volume   294.21524978
_cell_formula_units_Z   2
loop_
 _symmetry_equiv_pos_site_id
 _symmetry_equiv_pos_as_xyz
  1  'x, y, z'
loop_
 _atom_site_type_symbol
 _atom_site_label
 _atom_site_symmetry_multiplicity
 _atom_site_fract_x
 _atom_site_fract_y
 _atom_site_fract_z
 _atom_site_occupancy
  Ti  Ti0  1  0.44519123  0.72419286  0.35247937  1
  Ti  Ti1  1  0.99188113  0.35676318  0.12190892  1
  Ti  Ti2  1  0.04653194  0.98608541  0.89243120  1
  Ti  Ti3  1  0.67280263  0.72372198  0.89361167  1
  Ti  Ti4  1  0.81135547  0.98595113  0.35229027  1
  Ti  Ti5  1  0.17240532  0.13078476  0.48662677  1
  Ti  Ti6  1  0.54220110  0.12703010  0.75650799  1
  Ti  Ti7  1  0.31095865  0.58617973  0.75645864  1
  Ti  Ti8  1  0.49207038  0.35807681  0.12275541  1
  Ti  Ti9  1  0.94489431  0.58802152  0.48988172  1
  Mn  Mn10  1  0.49081370  0.85736269  0.62236929  1
  Mn  Mn11  1  0.99146330  0.85728562  0.62168694  1
  Sb  Sb12  1  0.07749649  0.68644774  0.12275787  1
  Sb  Sb13  1  0.40829182  0.02721468  0.12257568  1
  Sb  Sb14  1  0.90873230  0.35643679  0.79320240  1
  Sb  Sb15  1  0.57856649  0.35778728  0.45497376  1
