# generated using pymatgen
data_Ti
_symmetry_space_group_name_H-M   'P 1'
_cell_length_a   2.74438334
_cell_length_b   4.49793053
_cell_length_c   4.58320522
_cell_angle_alpha   117.84767151
_cell_angle_beta   89.17826843
_cell_angle_gamma   99.50988770
_symmetry_Int_Tables_number   1
_chemical_formula_structural   Ti
_chemical_formula_sum   Ti3
_cell_volume   49.20774722
_cell_formula_units_Z   3
loop_
 _symmetry_equiv_pos_site_id
 _symmetry_equiv_pos_as_xyz
  1  'x, y, z'
loop_
 _atom_site_type_symbol
 _atom_site_label
 _atom_site_symmetry_multiplicity
 _atom_site_fract_x
 _atom_site_fract_y
 _atom_site_fract_z
 _atom_site_occupancy
  Ti  Ti0  1  0.72465235  0.49475318  0.76521915  1
  Ti  Ti1  1  0.06131936  0.16150549  0.09804210  1
  Ti  Ti2  1  0.39459246  0.82856363  0.43206060  1
