# generated using pymatgen
data_TiCuGe
_symmetry_space_group_name_H-M   'P 1'
_cell_length_a   4.01719809
_cell_length_b   5.89886189
_cell_length_c   7.56648588
_cell_angle_alpha   90.06401825
_cell_angle_beta   89.92597198
_cell_angle_gamma   89.97803497
_symmetry_Int_Tables_number   1
_chemical_formula_structural   TiCuGe
_chemical_formula_sum   'Ti4 Cu4 Ge4'
_cell_volume   179.30195926
_cell_formula_units_Z   4
loop_
 _symmetry_equiv_pos_site_id
 _symmetry_equiv_pos_as_xyz
  1  'x, y, z'
loop_
 _atom_site_type_symbol
 _atom_site_label
 _atom_site_symmetry_multiplicity
 _atom_site_fract_x
 _atom_site_fract_y
 _atom_site_fract_z
 _atom_site_occupancy
  Ti  Ti0  1  0.62230325  0.89639401  0.17574918  1
  Ti  Ti1  1  0.12208673  0.52177560  0.32852817  1
  Ti  Ti2  1  0.62239295  0.50872189  0.83461279  1
  Ti  Ti3  1  0.62227190  0.01312486  0.79675251  1
  Cu  Cu4  1  0.62196320  0.25070205  0.48360705  1
  Cu  Cu5  1  0.12209260  0.99101245  0.40809605  1
  Cu  Cu6  1  0.12218399  0.20736876  0.01150556  1
  Cu  Cu7  1  0.12233032  0.71121955  0.67092425  1
  Ge  Ge8  1  0.12234230  0.27594513  0.67013550  1
  Ge  Ge9  1  0.12195659  0.77667099  0.98442400  1
  Ge  Ge10  1  0.62208879  0.75114560  0.49860269  1
  Ge  Ge11  1  0.62241149  0.36259204  0.15320666  1
