# generated using pymatgen
data_TiNbCr4
_symmetry_space_group_name_H-M   'P 1'
_cell_length_a   4.87710047
_cell_length_b   4.86054420
_cell_length_c   4.88184834
_cell_angle_alpha   59.84151840
_cell_angle_beta   60.15273666
_cell_angle_gamma   59.88661194
_symmetry_Int_Tables_number   1
_chemical_formula_structural   TiNbCr4
_chemical_formula_sum   'Ti1 Nb1 Cr4'
_cell_volume   81.75552057
_cell_formula_units_Z   1
loop_
 _symmetry_equiv_pos_site_id
 _symmetry_equiv_pos_as_xyz
  1  'x, y, z'
loop_
 _atom_site_type_symbol
 _atom_site_label
 _atom_site_symmetry_multiplicity
 _atom_site_fract_x
 _atom_site_fract_y
 _atom_site_fract_z
 _atom_site_occupancy
  Ti  Ti0  1  0.46213949  0.99020487  0.47805649  1
  Nb  Nb1  1  0.71296477  0.23983873  0.72756809  1
  Cr  Cr2  1  0.08723599  0.61420226  0.60211176  1
  Cr  Cr3  1  0.58825558  0.61481804  0.10232773  1
  Cr  Cr4  1  0.08697610  0.61498100  0.10275207  1
  Cr  Cr5  1  0.08696356  0.11447048  0.10254538  1
