# generated using pymatgen
data_TiOs
_symmetry_space_group_name_H-M   'P 1'
_cell_length_a   3.08994818
_cell_length_b   3.08654428
_cell_length_c   3.08198714
_cell_angle_alpha   89.96140289
_cell_angle_beta   90.32831573
_cell_angle_gamma   90.03875732
_symmetry_Int_Tables_number   1
_chemical_formula_structural   TiOs
_chemical_formula_sum   'Ti1 Os1'
_cell_volume   29.39322253
_cell_formula_units_Z   1
loop_
 _symmetry_equiv_pos_site_id
 _symmetry_equiv_pos_as_xyz
  1  'x, y, z'
loop_
 _atom_site_type_symbol
 _atom_site_label
 _atom_site_symmetry_multiplicity
 _atom_site_fract_x
 _atom_site_fract_y
 _atom_site_fract_z
 _atom_site_occupancy
  Ti  Ti0  1  0.91368812  0.59273916  0.80418164  1
  Os  Os1  1  0.41379911  0.09429297  0.30426088  1
