# generated using pymatgen
data_TiSnO3
_symmetry_space_group_name_H-M   'P 1'
_cell_length_a   5.11163235
_cell_length_b   5.11486673
_cell_length_c   5.15032196
_cell_angle_alpha   89.39842987
_cell_angle_beta   89.54319000
_cell_angle_gamma   88.70133972
_symmetry_Int_Tables_number   1
_chemical_formula_structural   TiSnO3
_chemical_formula_sum   'Ti2 Sn2 O6'
_cell_volume   134.61076923
_cell_formula_units_Z   2
loop_
 _symmetry_equiv_pos_site_id
 _symmetry_equiv_pos_as_xyz
  1  'x, y, z'
loop_
 _atom_site_type_symbol
 _atom_site_label
 _atom_site_symmetry_multiplicity
 _atom_site_fract_x
 _atom_site_fract_y
 _atom_site_fract_z
 _atom_site_occupancy
  Ti  Ti0  1  0.43288365  0.15548509  0.48275742  1
  Ti  Ti1  1  0.93197817  0.15469216  0.98294806  1
  Sn  Sn2  1  0.93279970  0.65596014  0.48266113  1
  Sn  Sn3  1  0.43227693  0.65644228  0.98373693  1
  O  O4  1  0.18207167  0.91965598  0.23248193  1
  O  O5  1  0.18263628  0.91895378  0.73223442  1
  O  O6  1  0.68126696  0.39446411  0.23269592  1
  O  O7  1  0.68088520  0.91828042  0.23246998  1
  O  O8  1  0.68133134  0.39230266  0.73158461  1
  O  O9  1  0.18190867  0.39363015  0.73140544  1
