# generated using pymatgen
data_Tl2CuF4
_symmetry_space_group_name_H-M   'P 1'
_cell_length_a   4.05597687
_cell_length_b   5.84886360
_cell_length_c   5.85529995
_cell_angle_alpha   119.93267059
_cell_angle_beta   90.04122925
_cell_angle_gamma   89.89172363
_symmetry_Int_Tables_number   1
_chemical_formula_structural   Tl2CuF4
_chemical_formula_sum   'Tl2 Cu1 F4'
_cell_volume   120.37608158
_cell_formula_units_Z   1
loop_
 _symmetry_equiv_pos_site_id
 _symmetry_equiv_pos_as_xyz
  1  'x, y, z'
loop_
 _atom_site_type_symbol
 _atom_site_label
 _atom_site_symmetry_multiplicity
 _atom_site_fract_x
 _atom_site_fract_y
 _atom_site_fract_z
 _atom_site_occupancy
  Tl  Tl0  1  0.41526175  0.68283314  0.25163403  1
  Tl  Tl1  1  0.41469991  0.34181041  0.60037023  1
  Cu  Cu2  1  0.91468239  0.00880442  0.92791152  1
  F  F3  1  0.91488206  0.69849461  0.61537516  1
  F  F4  1  0.91466486  0.33444792  0.94896364  1
  F  F5  1  0.41432017  0.00523392  0.93189138  1
  F  F6  1  0.91454673  0.02682257  0.26256537  1
