# generated using pymatgen
data_Tl2MoO4
_symmetry_space_group_name_H-M   'P 1'
_cell_length_a   6.76716900
_cell_length_b   6.80122423
_cell_length_c   7.92326355
_cell_angle_alpha   107.55708313
_cell_angle_beta   98.92701721
_cell_angle_gamma   118.54724121
_symmetry_Int_Tables_number   1
_chemical_formula_structural   Tl2MoO4
_chemical_formula_sum   'Tl4 Mo2 O8'
_cell_volume   285.23800610
_cell_formula_units_Z   2
loop_
 _symmetry_equiv_pos_site_id
 _symmetry_equiv_pos_as_xyz
  1  'x, y, z'
loop_
 _atom_site_type_symbol
 _atom_site_label
 _atom_site_symmetry_multiplicity
 _atom_site_fract_x
 _atom_site_fract_y
 _atom_site_fract_z
 _atom_site_occupancy
  Tl  Tl0  1  0.13713615  0.18337284  0.14332713  1
  Tl  Tl1  1  0.38262144  0.95020843  0.65840518  1
  Tl  Tl2  1  0.03446557  0.28833529  0.65453130  1
  Tl  Tl3  1  0.78664476  0.53066730  0.15962446  1
  Mo  Mo4  1  0.45673385  0.86573052  0.15788983  1
  Mo  Mo5  1  0.71017241  0.61691630  0.66065693  1
  O  O6  1  0.34436262  0.55652755  0.01933108  1
  O  O7  1  0.75910801  0.00366722  0.29821566  1
  O  O8  1  0.89663732  0.59325504  0.52126795  1
  O  O9  1  0.41769513  0.49510840  0.51519734  1
  O  O10  1  0.72523969  0.45877594  0.79500508  1
  O  O11  1  0.44056204  0.03664161  0.02053939  1
  O  O12  1  0.81589925  0.93061137  0.79290962  1
  O  O13  1  0.26178366  0.90122747  0.30110022  1
