# generated using pymatgen
data_Tl2Sn(AsS3)2
_symmetry_space_group_name_H-M   'P 1'
_cell_length_a   6.54486513
_cell_length_b   6.67450953
_cell_length_c   7.70373631
_cell_angle_alpha   102.87373352
_cell_angle_beta   97.94195557
_cell_angle_gamma   99.94366455
_symmetry_Int_Tables_number   1
_chemical_formula_structural   Tl2Sn(AsS3)2
_chemical_formula_sum   'Tl2 Sn1 As2 S6'
_cell_volume   317.62588839
_cell_formula_units_Z   1
loop_
 _symmetry_equiv_pos_site_id
 _symmetry_equiv_pos_as_xyz
  1  'x, y, z'
loop_
 _atom_site_type_symbol
 _atom_site_label
 _atom_site_symmetry_multiplicity
 _atom_site_fract_x
 _atom_site_fract_y
 _atom_site_fract_z
 _atom_site_occupancy
  Tl  Tl0  1  0.05941737  0.36030921  0.43752211  1
  Tl  Tl1  1  0.75204813  0.57046777  0.93477297  1
  Sn  Sn2  1  0.19922292  0.99217844  0.78691208  1
  As  As3  1  0.37585938  0.94250393  0.17866208  1
  As  As4  1  0.60116142  0.84458876  0.53503788  1
  S  S5  1  0.58269906  0.52375501  0.51715183  1
  S  S6  1  0.24833342  0.68197000  0.89612472  1
  S  S7  1  0.84258449  0.06866954  0.78689623  1
  S  S8  1  0.70721275  0.93465084  0.29313934  1
  S  S9  1  0.36215571  0.21854603  0.07741270  1
  S  S10  1  0.25248960  0.87203950  0.44628695  1
