# generated using pymatgen
data_Tl3Au
_symmetry_space_group_name_H-M   'P 1'
_cell_length_a   4.74674940
_cell_length_b   4.75213337
_cell_length_c   5.81215334
_cell_angle_alpha   114.44573975
_cell_angle_beta   114.39875031
_cell_angle_gamma   90.01026917
_symmetry_Int_Tables_number   1
_chemical_formula_structural   Tl3Au
_chemical_formula_sum   'Tl3 Au1'
_cell_volume   106.35288718
_cell_formula_units_Z   1
loop_
 _symmetry_equiv_pos_site_id
 _symmetry_equiv_pos_as_xyz
  1  'x, y, z'
loop_
 _atom_site_type_symbol
 _atom_site_label
 _atom_site_symmetry_multiplicity
 _atom_site_fract_x
 _atom_site_fract_y
 _atom_site_fract_z
 _atom_site_occupancy
  Tl  Tl0  1  0.87884808  0.55577278  0.61287683  1
  Tl  Tl1  1  0.37860671  0.05588729  0.61275482  1
  Tl  Tl2  1  0.12888582  0.30628735  0.11173157  1
  Au  Au3  1  0.62875158  0.80638212  0.11286667  1
