# generated using pymatgen
data_Tl3Bi
_symmetry_space_group_name_H-M   'P 1'
_cell_length_a   5.10522032
_cell_length_b   5.09596729
_cell_length_c   5.12346315
_cell_angle_alpha   89.71939087
_cell_angle_beta   89.77965546
_cell_angle_gamma   89.96195984
_symmetry_Int_Tables_number   1
_chemical_formula_structural   Tl3Bi
_chemical_formula_sum   'Tl3 Bi1'
_cell_volume   133.28958867
_cell_formula_units_Z   1
loop_
 _symmetry_equiv_pos_site_id
 _symmetry_equiv_pos_as_xyz
  1  'x, y, z'
loop_
 _atom_site_type_symbol
 _atom_site_label
 _atom_site_symmetry_multiplicity
 _atom_site_fract_x
 _atom_site_fract_y
 _atom_site_fract_z
 _atom_site_occupancy
  Tl  Tl0  1  0.87864608  0.64150399  0.43065578  1
  Tl  Tl1  1  0.87867844  0.14146389  0.93075353  1
  Tl  Tl2  1  0.37866205  0.14141394  0.43138322  1
  Bi  Bi3  1  0.37875134  0.64133120  0.93070525  1
