# generated using pymatgen
data_Tl3FeCl5
_symmetry_space_group_name_H-M   'P 1'
_cell_length_a   8.74819088
_cell_length_b   9.51263618
_cell_length_c   8.63990784
_cell_angle_alpha   62.08343506
_cell_angle_beta   90.19464111
_cell_angle_gamma   118.03504944
_symmetry_Int_Tables_number   1
_chemical_formula_structural   Tl3FeCl5
_chemical_formula_sum   'Tl6 Fe2 Cl10'
_cell_volume   538.70976404
_cell_formula_units_Z   2
loop_
 _symmetry_equiv_pos_site_id
 _symmetry_equiv_pos_as_xyz
  1  'x, y, z'
loop_
 _atom_site_type_symbol
 _atom_site_label
 _atom_site_symmetry_multiplicity
 _atom_site_fract_x
 _atom_site_fract_y
 _atom_site_fract_z
 _atom_site_occupancy
  Tl  Tl0  1  0.40443870  0.74956703  0.06336917  1
  Tl  Tl1  1  0.99254203  0.24961677  0.98111296  1
  Tl  Tl2  1  0.90438372  0.75016606  0.89277792  1
  Tl  Tl3  1  0.08024220  0.74966747  0.39289907  1
  Tl  Tl4  1  0.49189332  0.24941711  0.48298445  1
  Tl  Tl5  1  0.58016521  0.74887645  0.56171423  1
  Fe  Fe6  1  0.99303913  0.25038323  0.48104784  1
  Fe  Fe7  1  0.49250478  0.24924034  0.98254603  1
  Cl  Cl8  1  0.22585168  0.43803769  0.53108382  1
  Cl  Cl9  1  0.24892938  0.06202498  0.92703992  1
  Cl  Cl10  1  0.24339989  0.74889791  0.73517102  1
  Cl  Cl11  1  0.74201995  0.74868768  0.23480883  1
  Cl  Cl12  1  0.54693496  0.06256752  0.21571983  1
  Cl  Cl13  1  0.04633197  0.06204630  0.42508894  1
  Cl  Cl14  1  0.93503928  0.43740872  0.23625016  1
  Cl  Cl15  1  0.72366053  0.43564191  0.73753273  1
  Cl  Cl16  1  0.74892235  0.06293441  0.71583074  1
  Cl  Cl17  1  0.43449515  0.43711919  0.03133743  1
