# generated using pymatgen
data_TlCl3
_symmetry_space_group_name_H-M   'P 1'
_cell_length_a   7.13799381
_cell_length_b   7.14379740
_cell_length_c   7.44973183
_cell_angle_alpha   61.32002258
_cell_angle_beta   61.26197433
_cell_angle_gamma   59.77132416
_symmetry_Int_Tables_number   1
_chemical_formula_structural   TlCl3
_chemical_formula_sum   'Tl2 Cl6'
_cell_volume   273.24444741
_cell_formula_units_Z   2
loop_
 _symmetry_equiv_pos_site_id
 _symmetry_equiv_pos_as_xyz
  1  'x, y, z'
loop_
 _atom_site_type_symbol
 _atom_site_label
 _atom_site_symmetry_multiplicity
 _atom_site_fract_x
 _atom_site_fract_y
 _atom_site_fract_z
 _atom_site_occupancy
  Tl  Tl0  1  0.26453847  0.96576542  0.66648370  1
  Tl  Tl1  1  0.76528811  0.46526256  0.16665034  1
  Cl  Cl2  1  0.64101195  0.70836151  0.41636226  1
  Cl  Cl3  1  0.89543939  0.21844429  0.91749966  1
  Cl  Cl4  1  0.51201999  0.83723265  0.91847301  1
  Cl  Cl5  1  0.01708772  0.09563083  0.41575167  1
  Cl  Cl6  1  0.40371943  0.33614781  0.41703403  1
  Cl  Cl7  1  0.14080603  0.59513688  0.91863787  1
