# generated using pymatgen
data_TlS
_symmetry_space_group_name_H-M   'P 1'
_cell_length_a   4.22875643
_cell_length_b   4.28108501
_cell_length_c   6.37195778
_cell_angle_alpha   89.62479401
_cell_angle_beta   109.28469086
_cell_angle_gamma   89.92167664
_symmetry_Int_Tables_number   1
_chemical_formula_structural   TlS
_chemical_formula_sum   'Tl2 S2'
_cell_volume   108.87999548
_cell_formula_units_Z   2
loop_
 _symmetry_equiv_pos_site_id
 _symmetry_equiv_pos_as_xyz
  1  'x, y, z'
loop_
 _atom_site_type_symbol
 _atom_site_label
 _atom_site_symmetry_multiplicity
 _atom_site_fract_x
 _atom_site_fract_y
 _atom_site_fract_z
 _atom_site_occupancy
  Tl  Tl0  1  0.04931948  0.05720291  0.27203104  1
  Tl  Tl1  1  0.78723127  0.55788696  0.75721753  1
  S  S2  1  0.53330594  0.55691546  0.25410911  1
  S  S3  1  0.28734946  0.05664230  0.76972312  1
