# generated using pymatgen
data_Tm(AlC)3
_symmetry_space_group_name_H-M   'P 1'
_cell_length_a   3.42514014
_cell_length_b   3.39108324
_cell_length_c   17.12999153
_cell_angle_alpha   83.97881317
_cell_angle_beta   83.92189026
_cell_angle_gamma   58.54810715
_symmetry_Int_Tables_number   1
_chemical_formula_structural   Tm(AlC)3
_chemical_formula_sum   'Tm2 Al6 C6'
_cell_volume   168.48823698
_cell_formula_units_Z   2
loop_
 _symmetry_equiv_pos_site_id
 _symmetry_equiv_pos_as_xyz
  1  'x, y, z'
loop_
 _atom_site_type_symbol
 _atom_site_label
 _atom_site_symmetry_multiplicity
 _atom_site_fract_x
 _atom_site_fract_y
 _atom_site_fract_z
 _atom_site_occupancy
  Tm  Tm0  1  0.16672336  0.81196910  0.99669665  1
  Tm  Tm1  1  0.03977407  0.68342054  0.37526628  1
  Al  Al2  1  0.41661462  0.06109045  0.24156322  1
  Al  Al3  1  0.53951532  0.18513919  0.87027371  1
  Al  Al4  1  0.78957361  0.43117616  0.13256654  1
  Al  Al5  1  0.91458750  0.55566239  0.75405681  1
  Al  Al6  1  0.66609281  0.31002545  0.49844941  1
  Al  Al7  1  0.29071420  0.93466014  0.62963039  1
  C  C8  1  0.47078580  0.11426610  0.08819652  1
  C  C9  1  0.58661479  0.23273315  0.73196286  1
  C  C10  1  0.34563118  0.98860073  0.45992944  1
  C  C11  1  0.09764642  0.74113160  0.20227459  1
  C  C12  1  0.86376286  0.50884825  0.90239090  1
  C  C13  1  0.62438828  0.26858857  0.60870612  1
