# generated using pymatgen
data_Tm(MnAl2)4
_symmetry_space_group_name_H-M   'P 1'
_cell_length_a   5.19851398
_cell_length_b   6.73329592
_cell_length_c   6.75952482
_cell_angle_alpha   81.02843475
_cell_angle_beta   66.99215698
_cell_angle_gamma   67.27497101
_symmetry_Int_Tables_number   1
_chemical_formula_structural   Tm(MnAl2)4
_chemical_formula_sum   'Tm1 Mn4 Al8'
_cell_volume   200.87294012
_cell_formula_units_Z   1
loop_
 _symmetry_equiv_pos_site_id
 _symmetry_equiv_pos_as_xyz
  1  'x, y, z'
loop_
 _atom_site_type_symbol
 _atom_site_label
 _atom_site_symmetry_multiplicity
 _atom_site_fract_x
 _atom_site_fract_y
 _atom_site_fract_z
 _atom_site_occupancy
  Tm  Tm0  1  0.41842863  0.66795719  0.28763992  1
  Mn  Mn1  1  0.41868532  0.66882110  0.78840613  1
  Mn  Mn2  1  0.41842893  0.16862747  0.28606278  1
  Mn  Mn3  1  0.91832411  0.16905040  0.28715032  1
  Mn  Mn4  1  0.91820425  0.66847873  0.78806895  1
  Al  Al5  1  0.41892880  0.00634127  0.95132369  1
  Al  Al6  1  0.69541305  0.88995177  0.50933945  1
  Al  Al7  1  0.91873765  0.88983011  0.06588369  1
  Al  Al8  1  0.91889375  0.44682795  0.51003164  1
  Al  Al9  1  0.14107694  0.44649556  0.06540923  1
  Al  Al10  1  0.75595385  0.33226094  0.95100367  1
  Al  Al11  1  0.08098042  0.00595811  0.62334305  1
  Al  Al12  1  0.41810125  0.33146942  0.62491876  1
