# generated using pymatgen
data_Tm3Pt4
_symmetry_space_group_name_H-M   'P 1'
_cell_length_a   5.75858402
_cell_length_b   7.70429993
_cell_length_c   7.74036312
_cell_angle_alpha   113.82033539
_cell_angle_beta   104.32386017
_cell_angle_gamma   104.41455841
_symmetry_Int_Tables_number   1
_chemical_formula_structural   Tm3Pt4
_chemical_formula_sum   'Tm6 Pt8'
_cell_volume   279.82267820
_cell_formula_units_Z   2
loop_
 _symmetry_equiv_pos_site_id
 _symmetry_equiv_pos_as_xyz
  1  'x, y, z'
loop_
 _atom_site_type_symbol
 _atom_site_label
 _atom_site_symmetry_multiplicity
 _atom_site_fract_x
 _atom_site_fract_y
 _atom_site_fract_z
 _atom_site_occupancy
  Tm  Tm0  1  0.67843765  0.52927744  0.18671656  1
  Tm  Tm1  1  0.24613950  0.40216851  0.43964183  1
  Tm  Tm2  1  0.00293458  0.27450088  0.80792648  1
  Tm  Tm3  1  0.55329341  0.02387807  0.32182884  1
  Tm  Tm4  1  0.87439781  0.77089542  0.93958700  1
  Tm  Tm5  1  0.30971736  0.89883083  0.68675345  1
  Pt  Pt6  1  0.50513315  0.31613487  0.73325521  1
  Pt  Pt7  1  0.27751258  0.14730176  0.06531312  1
  Pt  Pt8  1  0.21367604  0.63562769  0.22488768  1
  Pt  Pt9  1  0.04913940  0.98677713  0.38922200  1
  Pt  Pt10  1  0.72750890  0.82129985  0.57519972  1
  Pt  Pt11  1  0.77783769  0.15007576  0.06557591  1
  Pt  Pt12  1  0.82727689  0.47481912  0.54819745  1
  Pt  Pt13  1  0.34069306  0.66215527  0.89891642  1
