# generated using pymatgen
data_Tm5BiPt2
_symmetry_space_group_name_H-M   'P 1'
_cell_length_a   7.64692402
_cell_length_b   8.70348263
_cell_length_c   7.64143801
_cell_angle_alpha   64.06056213
_cell_angle_beta   90.34542084
_cell_angle_gamma   116.92546082
_symmetry_Int_Tables_number   1
_chemical_formula_structural   Tm5BiPt2
_chemical_formula_sum   'Tm10 Bi2 Pt4'
_cell_volume   395.89186562
_cell_formula_units_Z   2
loop_
 _symmetry_equiv_pos_site_id
 _symmetry_equiv_pos_as_xyz
  1  'x, y, z'
loop_
 _atom_site_type_symbol
 _atom_site_label
 _atom_site_symmetry_multiplicity
 _atom_site_fract_x
 _atom_site_fract_y
 _atom_site_fract_z
 _atom_site_occupancy
  Tm  Tm0  1  0.65101898  0.67122132  0.10326023  1
  Tm  Tm1  1  0.42206663  0.21667093  0.01723678  1
  Tm  Tm2  1  0.23185456  0.21725807  0.51659131  1
  Tm  Tm3  1  0.44326219  0.94550997  0.80825382  1
  Tm  Tm4  1  0.96025932  0.67140198  0.78771830  1
  Tm  Tm5  1  0.94288611  0.94537419  0.30822411  1
  Tm  Tm6  1  0.92180294  0.21707846  0.83463365  1
  Tm  Tm7  1  0.45967701  0.67191285  0.60310179  1
  Tm  Tm8  1  0.73073334  0.21635213  0.33276194  1
  Tm  Tm9  1  0.15088512  0.67172170  0.28789803  1
  Bi  Bi10  1  0.69223195  0.44565231  0.55844158  1
  Bi  Bi11  1  0.19205597  0.44486949  0.05852560  1
  Pt  Pt12  1  0.07842574  0.94535851  0.94252825  1
  Pt  Pt13  1  0.80012441  0.94520372  0.67026329  1
  Pt  Pt14  1  0.30068001  0.94571370  0.44299904  1
  Pt  Pt15  1  0.57830328  0.94520611  0.16992226  1
