# generated using pymatgen
data_Tm6Ni2Sn
_symmetry_space_group_name_H-M   'P 1'
_cell_length_a   8.15227699
_cell_length_b   8.25654411
_cell_length_c   8.21359348
_cell_angle_alpha   74.50416565
_cell_angle_beta   69.93319702
_cell_angle_gamma   112.09647369
_symmetry_Int_Tables_number   1
_chemical_formula_structural   Tm6Ni2Sn
_chemical_formula_sum   'Tm12 Ni4 Sn2'
_cell_volume   428.39043089
_cell_formula_units_Z   2
loop_
 _symmetry_equiv_pos_site_id
 _symmetry_equiv_pos_as_xyz
  1  'x, y, z'
loop_
 _atom_site_type_symbol
 _atom_site_label
 _atom_site_symmetry_multiplicity
 _atom_site_fract_x
 _atom_site_fract_y
 _atom_site_fract_z
 _atom_site_occupancy
  Tm  Tm0  1  0.00870784  0.42457935  0.36821428  1
  Tm  Tm1  1  0.75528008  0.88006204  0.32760248  1
  Tm  Tm2  1  0.08839953  0.16340098  0.95841283  1
  Tm  Tm3  1  0.82016462  0.63742435  0.08319633  1
  Tm  Tm4  1  0.29455590  0.63697153  0.58282048  1
  Tm  Tm5  1  0.44268695  0.52582341  0.95844781  1
  Tm  Tm6  1  0.34156179  0.86607641  0.15107608  1
  Tm  Tm7  1  0.22993563  0.92368042  0.75977761  1
  Tm  Tm8  1  0.22911735  0.16919395  0.32885578  1
  Tm  Tm9  1  0.71319574  0.00096592  0.71518511  1
  Tm  Tm10  1  0.79693753  0.33745739  0.87152731  1
  Tm  Tm11  1  0.53526855  0.39347118  0.55905592  1
  Ni  Ni12  1  0.10265447  0.24264653  0.62982935  1
  Ni  Ni13  1  0.09756948  0.50167763  0.98742038  1
  Ni  Ni14  1  0.44751254  0.58277327  0.25802061  1
  Ni  Ni15  1  0.44764134  0.16941378  0.87514728  1
  Sn  Sn16  1  0.59775227  0.15544409  0.33041933  1
  Sn  Sn17  1  0.94563544  0.74290466  0.58288562  1
