# generated using pymatgen
data_TmAlCu4
_symmetry_space_group_name_H-M   'P 1'
_cell_length_a   4.06990385
_cell_length_b   5.08316946
_cell_length_c   5.12234020
_cell_angle_alpha   119.60958862
_cell_angle_beta   90.04567719
_cell_angle_gamma   89.94805908
_symmetry_Int_Tables_number   1
_chemical_formula_structural   TmAlCu4
_chemical_formula_sum   'Tm1 Al1 Cu4'
_cell_volume   92.13246704
_cell_formula_units_Z   1
loop_
 _symmetry_equiv_pos_site_id
 _symmetry_equiv_pos_as_xyz
  1  'x, y, z'
loop_
 _atom_site_type_symbol
 _atom_site_label
 _atom_site_symmetry_multiplicity
 _atom_site_fract_x
 _atom_site_fract_y
 _atom_site_fract_z
 _atom_site_occupancy
  Tm  Tm0  1  0.63316602  0.16001052  0.77854896  1
  Al  Al1  1  0.63361186  0.82633990  0.11278173  1
  Cu  Cu2  1  0.13297875  0.16034484  0.27922571  1
  Cu  Cu3  1  0.13294987  0.65817171  0.77843469  1
  Cu  Cu4  1  0.63336170  0.49332127  0.44576305  1
  Cu  Cu5  1  0.13331835  0.65829420  0.27863801  1
