# generated using pymatgen
data_TmLuMg2
_symmetry_space_group_name_H-M   'P 1'
_cell_length_a   5.27872801
_cell_length_b   5.28074169
_cell_length_c   5.26498795
_cell_angle_alpha   59.88652420
_cell_angle_beta   59.79187393
_cell_angle_gamma   60.02943039
_symmetry_Int_Tables_number   1
_chemical_formula_structural   TmLuMg2
_chemical_formula_sum   'Tm1 Lu1 Mg2'
_cell_volume   103.54811292
_cell_formula_units_Z   1
loop_
 _symmetry_equiv_pos_site_id
 _symmetry_equiv_pos_as_xyz
  1  'x, y, z'
loop_
 _atom_site_type_symbol
 _atom_site_label
 _atom_site_symmetry_multiplicity
 _atom_site_fract_x
 _atom_site_fract_y
 _atom_site_fract_z
 _atom_site_occupancy
  Tm  Tm0  1  0.47817266  0.73147297  0.10196976  1
  Lu  Lu1  1  0.97776222  0.23120783  0.60202485  1
  Mg  Mg2  1  0.72784352  0.98116976  0.35174915  1
  Mg  Mg3  1  0.22780249  0.48122421  0.85177124  1
