# generated using pymatgen
data_TmNiP
_symmetry_space_group_name_H-M   'P 1'
_cell_length_a   3.86937213
_cell_length_b   3.87303996
_cell_length_c   14.87808800
_cell_angle_alpha   90.00576782
_cell_angle_beta   89.80309296
_cell_angle_gamma   120.36399078
_symmetry_Int_Tables_number   1
_chemical_formula_structural   TmNiP
_chemical_formula_sum   'Tm4 Ni4 P4'
_cell_volume   192.38103704
_cell_formula_units_Z   4
loop_
 _symmetry_equiv_pos_site_id
 _symmetry_equiv_pos_as_xyz
  1  'x, y, z'
loop_
 _atom_site_type_symbol
 _atom_site_label
 _atom_site_symmetry_multiplicity
 _atom_site_fract_x
 _atom_site_fract_y
 _atom_site_fract_z
 _atom_site_occupancy
  Tm  Tm0  1  0.78379345  0.66181415  0.04294448  1
  Tm  Tm1  1  0.78333843  0.66185886  0.54323566  1
  Tm  Tm2  1  0.78332317  0.66205865  0.79347408  1
  Tm  Tm3  1  0.78356898  0.66159129  0.29330719  1
  Ni  Ni4  1  0.11688771  0.32791013  0.17011389  1
  Ni  Ni5  1  0.11708404  0.32816118  0.41759545  1
  Ni  Ni6  1  0.44991446  0.99426395  0.66921282  1
  Ni  Ni7  1  0.45005164  0.99471128  0.91691422  1
  P  P8  1  0.45019296  0.99411947  0.41795367  1
  P  P9  1  0.11711423  0.32822025  0.66754246  1
  P  P10  1  0.11732902  0.32784683  0.91834545  1
  P  P11  1  0.45035860  0.99491304  0.16758277  1
