# generated using pymatgen
data_TmTc2
_symmetry_space_group_name_H-M   'P 1'
_cell_length_a   5.35392141
_cell_length_b   5.33330345
_cell_length_c   8.92084980
_cell_angle_alpha   89.92195129
_cell_angle_beta   89.92369843
_cell_angle_gamma   119.79158020
_symmetry_Int_Tables_number   1
_chemical_formula_structural   TmTc2
_chemical_formula_sum   'Tm4 Tc8'
_cell_volume   221.06085673
_cell_formula_units_Z   4
loop_
 _symmetry_equiv_pos_site_id
 _symmetry_equiv_pos_as_xyz
  1  'x, y, z'
loop_
 _atom_site_type_symbol
 _atom_site_label
 _atom_site_symmetry_multiplicity
 _atom_site_fract_x
 _atom_site_fract_y
 _atom_site_fract_z
 _atom_site_occupancy
  Tm  Tm0  1  0.85008711  0.90872401  0.43134123  1
  Tm  Tm1  1  0.18345675  0.57487655  0.93099451  1
  Tm  Tm2  1  0.85027057  0.90859133  0.05766313  1
  Tm  Tm3  1  0.18298574  0.57474697  0.55791831  1
  Tc  Tc4  1  0.68835354  0.07178118  0.74566913  1
  Tc  Tc5  1  0.51707715  0.24262358  0.99657184  1
  Tc  Tc6  1  0.17733954  0.07087050  0.74569398  1
  Tc  Tc7  1  0.34741777  0.90056264  0.24596928  1
  Tc  Tc8  1  0.68840194  0.58547801  0.74534607  1
  Tc  Tc9  1  0.86091524  0.41274133  0.24555653  1
  Tc  Tc10  1  0.34704050  0.41380724  0.24558051  1
  Tc  Tc11  1  0.51685375  0.24322736  0.49572313  1
