# generated using pymatgen
data_TmTiFe11
_symmetry_space_group_name_H-M   'P 1'
_cell_length_a   4.71219015
_cell_length_b   6.51975393
_cell_length_c   6.52546549
_cell_angle_alpha   82.00338745
_cell_angle_beta   68.81142426
_cell_angle_gamma   68.82914734
_symmetry_Int_Tables_number   1
_chemical_formula_structural   TmTiFe11
_chemical_formula_sum   'Tm1 Ti1 Fe11'
_cell_volume   174.29988816
_cell_formula_units_Z   1
loop_
 _symmetry_equiv_pos_site_id
 _symmetry_equiv_pos_as_xyz
  1  'x, y, z'
loop_
 _atom_site_type_symbol
 _atom_site_label
 _atom_site_symmetry_multiplicity
 _atom_site_fract_x
 _atom_site_fract_y
 _atom_site_fract_z
 _atom_site_occupancy
  Tm  Tm0  1  0.94776100  0.38602605  0.41695428  1
  Ti  Ti1  1  0.31477663  0.01896740  0.04911744  1
  Fe  Fe2  1  0.45015368  0.60254383  0.19239768  1
  Fe  Fe3  1  0.44931072  0.38623518  0.91657162  1
  Fe  Fe4  1  0.94921184  0.74053025  0.05644845  1
  Fe  Fe5  1  0.22615698  0.60781229  0.63559455  1
  Fe  Fe6  1  0.94878745  0.38582623  0.91648811  1
  Fe  Fe7  1  0.67617476  0.15855908  0.19002420  1
  Fe  Fe8  1  0.94932467  0.02524872  0.76869988  1
  Fe  Fe9  1  0.59545916  0.73810208  0.76854062  1
  Fe  Fe10  1  0.45002332  0.16397059  0.63172197  1
  Fe  Fe11  1  0.44958648  0.88479596  0.41673973  1
  Fe  Fe12  1  0.94825119  0.88471162  0.41705924  1
