# generated using pymatgen
data_U(WC)4
_symmetry_space_group_name_H-M   'P 1'
_cell_length_a   3.13685441
_cell_length_b   5.50339222
_cell_length_c   12.56184292
_cell_angle_alpha   89.94664764
_cell_angle_beta   89.87885284
_cell_angle_gamma   90.09502411
_symmetry_Int_Tables_number   1
_chemical_formula_structural   U(WC)4
_chemical_formula_sum   'U2 W8 C8'
_cell_volume   216.85848954
_cell_formula_units_Z   2
loop_
 _symmetry_equiv_pos_site_id
 _symmetry_equiv_pos_as_xyz
  1  'x, y, z'
loop_
 _atom_site_type_symbol
 _atom_site_label
 _atom_site_symmetry_multiplicity
 _atom_site_fract_x
 _atom_site_fract_y
 _atom_site_fract_z
 _atom_site_occupancy
  U  U0  1  0.66628212  0.20166799  0.60110652  1
  U  U1  1  0.66610354  0.86242670  0.01923084  1
  W  W2  1  0.16571711  0.01999847  0.82183105  1
  W  W3  1  0.66553718  0.70372283  0.44284755  1
  W  W4  1  0.16566914  0.70306987  0.64107549  1
  W  W5  1  0.66534883  0.52201331  0.82296252  1
  W  W6  1  0.16555989  0.20068467  0.38168868  1
  W  W7  1  0.16593780  0.71118242  0.23915130  1
  W  W8  1  0.66528088  0.20950562  0.19803523  1
  W  W9  1  0.16532049  0.36560330  0.01490261  1
  C  C10  1  0.66547298  0.94896978  0.31323475  1
  C  C11  1  0.16456152  0.68254799  0.90924251  1
  C  C12  1  0.16503976  0.05378592  0.11850518  1
  C  C13  1  0.66506487  0.86129516  0.72602022  1
  C  C14  1  0.16526359  0.44796783  0.51097804  1
  C  C15  1  0.66566217  0.20203313  0.91149098  1
  C  C16  1  0.66479313  0.53328007  0.13361366  1
  C  C17  1  0.16474232  0.94584537  0.51251996  1
