# generated using pymatgen
data_U3Cu3Sn4
_symmetry_space_group_name_H-M   'P 1'
_cell_length_a   8.15522861
_cell_length_b   8.14654827
_cell_length_c   8.17373753
_cell_angle_alpha   108.38228607
_cell_angle_beta   109.47106171
_cell_angle_gamma   110.09154510
_symmetry_Int_Tables_number   1
_chemical_formula_structural   U3Cu3Sn4
_chemical_formula_sum   'U6 Cu6 Sn8'
_cell_volume   420.36018188
_cell_formula_units_Z   2
loop_
 _symmetry_equiv_pos_site_id
 _symmetry_equiv_pos_as_xyz
  1  'x, y, z'
loop_
 _atom_site_type_symbol
 _atom_site_label
 _atom_site_symmetry_multiplicity
 _atom_site_fract_x
 _atom_site_fract_y
 _atom_site_fract_z
 _atom_site_occupancy
  U  U0  1  0.23220032  0.91791356  0.14851557  1
  U  U1  1  0.73158807  0.54311895  0.53578895  1
  U  U2  1  0.47856542  0.03967502  0.66422409  1
  U  U3  1  0.60419762  0.67652953  0.03555904  1
  U  U4  1  0.08280274  0.23679262  0.71425325  1
  U  U5  1  0.97902191  0.40552396  0.27428374  1
  Cu  Cu6  1  0.73738170  0.90180337  0.52446854  1
  Cu  Cu7  1  0.59319359  0.03440235  0.03157040  1
  Cu  Cu8  1  0.10933218  0.91480565  0.76997465  1
  Cu  Cu9  1  0.22780454  0.53820837  0.03554663  1
  Cu  Cu10  1  0.97780257  0.04984025  0.27262226  1
  Cu  Cu11  1  0.23436284  0.28132579  0.16095687  1
  Sn  Sn12  1  0.42806628  0.66074753  0.37628534  1
  Sn  Sn13  1  0.35136625  0.30482316  0.54102218  1
  Sn  Sn14  1  0.48492116  0.29583067  0.04249418  1
  Sn  Sn15  1  0.85060108  0.46654874  0.89424902  1
  Sn  Sn16  1  0.22863531  0.66168952  0.74552482  1
  Sn  Sn17  1  0.68344605  0.12448537  0.38135535  1
  Sn  Sn18  1  0.00843904  0.80161881  0.39543366  1
  Sn  Sn19  1  0.85083795  0.96833694  0.89404291  1
