# generated using pymatgen
data_USn2
_symmetry_space_group_name_H-M   'P 1'
_cell_length_a   4.40636492
_cell_length_b   4.48055601
_cell_length_c   8.07629681
_cell_angle_alpha   106.14949799
_cell_angle_beta   90.16009521
_cell_angle_gamma   90.06948853
_symmetry_Int_Tables_number   1
_chemical_formula_structural   USn2
_chemical_formula_sum   'U2 Sn4'
_cell_volume   153.15709449
_cell_formula_units_Z   2
loop_
 _symmetry_equiv_pos_site_id
 _symmetry_equiv_pos_as_xyz
  1  'x, y, z'
loop_
 _atom_site_type_symbol
 _atom_site_label
 _atom_site_symmetry_multiplicity
 _atom_site_fract_x
 _atom_site_fract_y
 _atom_site_fract_z
 _atom_site_occupancy
  U  U0  1  0.52160716  0.92208946  0.76812971  1
  U  U1  1  0.02162278  0.11887642  0.16311671  1
  Sn  Sn2  1  0.52203518  0.27069464  0.46710327  1
  Sn  Sn3  1  0.02174372  0.77068609  0.46634558  1
  Sn  Sn4  1  0.02187236  0.45063812  0.82729214  1
  Sn  Sn5  1  0.52184689  0.59078383  0.10904139  1
