# generated using pymatgen
data_USnRu
_symmetry_space_group_name_H-M   'P 1'
_cell_length_a   3.98139739
_cell_length_b   7.37497950
_cell_length_c   7.36981678
_cell_angle_alpha   120.10969543
_cell_angle_beta   89.86270905
_cell_angle_gamma   90.02921295
_symmetry_Int_Tables_number   1
_chemical_formula_structural   USnRu
_chemical_formula_sum   'U3 Sn3 Ru3'
_cell_volume   187.19798346
_cell_formula_units_Z   3
loop_
 _symmetry_equiv_pos_site_id
 _symmetry_equiv_pos_as_xyz
  1  'x, y, z'
loop_
 _atom_site_type_symbol
 _atom_site_label
 _atom_site_symmetry_multiplicity
 _atom_site_fract_x
 _atom_site_fract_y
 _atom_site_fract_z
 _atom_site_occupancy
  U  U0  1  0.65355921  0.40594751  0.35205266  1
  U  U1  1  0.65306789  0.82206059  0.93982339  1
  U  U2  1  0.65332687  0.99363941  0.52363914  1
  Sn  Sn3  1  0.15310629  0.65808803  0.18841213  1
  Sn  Sn4  1  0.15329336  0.40789238  0.68738168  1
  Sn  Sn5  1  0.15332970  0.15551619  0.93933427  1
  Ru  Ru6  1  0.15333056  0.73961002  0.60598624  1
  Ru  Ru7  1  0.65368176  0.40743205  0.94004005  1
  Ru  Ru8  1  0.15344372  0.07099783  0.27289155  1
