# generated using pymatgen
data_V2AsC
_symmetry_space_group_name_H-M   'P 1'
_cell_length_a   3.17137146
_cell_length_b   3.18138576
_cell_length_c   11.30811882
_cell_angle_alpha   89.72529602
_cell_angle_beta   89.80474854
_cell_angle_gamma   119.62506104
_symmetry_Int_Tables_number   1
_chemical_formula_structural   V2AsC
_chemical_formula_sum   'V4 As2 C2'
_cell_volume   99.17410975
_cell_formula_units_Z   2
loop_
 _symmetry_equiv_pos_site_id
 _symmetry_equiv_pos_as_xyz
  1  'x, y, z'
loop_
 _atom_site_type_symbol
 _atom_site_label
 _atom_site_symmetry_multiplicity
 _atom_site_fract_x
 _atom_site_fract_y
 _atom_site_fract_z
 _atom_site_occupancy
  V  V0  1  0.68916881  0.28770941  0.99168539  1
  V  V1  1  0.02277176  0.95501798  0.27260971  1
  V  V2  1  0.68953317  0.28767309  0.67324489  1
  V  V3  1  0.02283004  0.95503587  0.49131921  1
  As  As4  1  0.35539061  0.62131131  0.13013892  1
  As  As5  1  0.02245963  0.95429569  0.83120495  1
  C  C6  1  0.35611933  0.62116128  0.58140725  1
  C  C7  1  0.68893123  0.28818390  0.37463242  1
