# generated using pymatgen
data_V2CrRu
_symmetry_space_group_name_H-M   'P 1'
_cell_length_a   4.24870634
_cell_length_b   4.24320745
_cell_length_c   4.21715069
_cell_angle_alpha   59.65605927
_cell_angle_beta   59.83410645
_cell_angle_gamma   60.33095169
_symmetry_Int_Tables_number   1
_chemical_formula_structural   V2CrRu
_chemical_formula_sum   'V2 Cr1 Ru1'
_cell_volume   53.68275987
_cell_formula_units_Z   1
loop_
 _symmetry_equiv_pos_site_id
 _symmetry_equiv_pos_as_xyz
  1  'x, y, z'
loop_
 _atom_site_type_symbol
 _atom_site_label
 _atom_site_symmetry_multiplicity
 _atom_site_fract_x
 _atom_site_fract_y
 _atom_site_fract_z
 _atom_site_occupancy
  V  V0  1  0.56116438  0.92629993  0.34653631  1
  V  V1  1  0.06108249  0.42592773  0.84678757  1
  Cr  Cr2  1  0.31106085  0.67689723  0.09642534  1
  Ru  Ru3  1  0.81099260  0.17620802  0.59626430  1
