# generated using pymatgen
data_V2CuO6
_symmetry_space_group_name_H-M   'P 1'
_cell_length_a   3.61285925
_cell_length_b   5.65397692
_cell_length_c   6.56539345
_cell_angle_alpha   73.75813293
_cell_angle_beta   73.94970703
_cell_angle_gamma   71.11144257
_symmetry_Int_Tables_number   1
_chemical_formula_structural   V2CuO6
_chemical_formula_sum   'V2 Cu1 O6'
_cell_volume   119.24594596
_cell_formula_units_Z   1
loop_
 _symmetry_equiv_pos_site_id
 _symmetry_equiv_pos_as_xyz
  1  'x, y, z'
loop_
 _atom_site_type_symbol
 _atom_site_label
 _atom_site_symmetry_multiplicity
 _atom_site_fract_x
 _atom_site_fract_y
 _atom_site_fract_z
 _atom_site_occupancy
  V  V0  1  0.60605454  0.92773008  0.32907701  1
  V  V1  1  0.96801937  0.42811367  0.11809191  1
  Cu  Cu2  1  0.25659245  0.38600355  0.56290710  1
  O  O3  1  0.41034719  0.02530959  0.59927368  1
  O  O4  1  0.79996455  0.75822961  0.07539322  1
  O  O5  1  0.47931686  0.31941909  0.19998497  1
  O  O6  1  0.08253819  0.98950464  0.28458235  1
  O  O7  1  0.11962183  0.39085522  0.85534811  1
  O  O8  1  0.73322779  0.56185651  0.45595667  1
