# generated using pymatgen
data_V2O5
_symmetry_space_group_name_H-M   'P 1'
_cell_length_a   3.53555512
_cell_length_b   5.39762497
_cell_length_c   12.22411728
_cell_angle_alpha   89.88492584
_cell_angle_beta   89.99015808
_cell_angle_gamma   89.89121246
_symmetry_Int_Tables_number   1
_chemical_formula_structural   V2O5
_chemical_formula_sum   'V4 O10'
_cell_volume   233.27927780
_cell_formula_units_Z   2
loop_
 _symmetry_equiv_pos_site_id
 _symmetry_equiv_pos_as_xyz
  1  'x, y, z'
loop_
 _atom_site_type_symbol
 _atom_site_label
 _atom_site_symmetry_multiplicity
 _atom_site_fract_x
 _atom_site_fract_y
 _atom_site_fract_z
 _atom_site_occupancy
  V  V0  1  0.76636839  0.31753558  0.07132059  1
  V  V1  1  0.26571903  0.07960571  0.55285126  1
  V  V2  1  0.26679441  0.15162311  0.27154139  1
  V  V3  1  0.76624751  0.64977717  0.89455020  1
  O  O4  1  0.76595086  0.63991797  0.05838550  1
  O  O5  1  0.76628333  0.28000331  0.92596298  1
  O  O6  1  0.26734403  0.83232069  0.28137919  1
  O  O7  1  0.26442769  0.21833356  0.66004151  1
  O  O8  1  0.76628917  0.67080218  0.76684105  1
  O  O9  1  0.26370034  0.24206524  0.41985387  1
  O  O10  1  0.26570484  0.22536696  0.10753655  1
  O  O11  1  0.26501274  0.74892360  0.90997797  1
  O  O12  1  0.76455384  0.92409724  0.53795791  1
  O  O13  1  0.76661968  0.27332804  0.24313505  1
