# generated using pymatgen
data_V3(O2F)2
_symmetry_space_group_name_H-M   'P 1'
_cell_length_a   4.75029707
_cell_length_b   5.64778519
_cell_length_c   7.67965984
_cell_angle_alpha   85.23696136
_cell_angle_beta   90.00597382
_cell_angle_gamma   89.89775848
_symmetry_Int_Tables_number   1
_chemical_formula_structural   V3(O2F)2
_chemical_formula_sum   'V6 O8 F4'
_cell_volume   205.32311508
_cell_formula_units_Z   2
loop_
 _symmetry_equiv_pos_site_id
 _symmetry_equiv_pos_as_xyz
  1  'x, y, z'
loop_
 _atom_site_type_symbol
 _atom_site_label
 _atom_site_symmetry_multiplicity
 _atom_site_fract_x
 _atom_site_fract_y
 _atom_site_fract_z
 _atom_site_occupancy
  V  V0  1  0.37069067  0.08150387  0.37366086  1
  V  V1  1  0.85371155  0.93058002  0.05367807  1
  V  V2  1  0.84856075  0.24492988  0.69155878  1
  V  V3  1  0.84273732  0.56137592  0.37650907  1
  V  V4  1  0.41795984  0.75230896  0.72102791  1
  V  V5  1  0.39911646  0.40112612  0.04710031  1
  O  O6  1  0.06618091  0.27077165  0.48019239  1
  O  O7  1  0.67469186  0.54088688  0.60947144  1
  O  O8  1  0.67443311  0.21496928  0.93221509  1
  O  O9  1  0.56993639  0.37286475  0.27307832  1
  O  O10  1  0.56907529  0.70219082  0.95058393  1
  O  O11  1  0.57174063  0.04268216  0.60738015  1
  O  O12  1  0.67499518  0.86789191  0.27949491  1
  O  O13  1  0.17682649  0.11557941  0.13726027  1
  F  F14  1  0.17402515  0.44517022  0.81128484  1
  F  F15  1  0.17432901  0.76927060  0.48043761  1
  F  F16  1  0.07287578  0.60544229  0.14395510  1
  F  F17  1  0.07086761  0.94569957  0.80450517  1
