# generated using pymatgen
data_V3(PS3)4
_symmetry_space_group_name_H-M   'P 1'
_cell_length_a   6.32820606
_cell_length_b   7.59986830
_cell_length_c   10.26771259
_cell_angle_alpha   103.68441010
_cell_angle_beta   94.70288849
_cell_angle_gamma   100.36466217
_symmetry_Int_Tables_number   1
_chemical_formula_structural   V3(PS3)4
_chemical_formula_sum   'V3 P4 S12'
_cell_volume   467.93935832
_cell_formula_units_Z   1
loop_
 _symmetry_equiv_pos_site_id
 _symmetry_equiv_pos_as_xyz
  1  'x, y, z'
loop_
 _atom_site_type_symbol
 _atom_site_label
 _atom_site_symmetry_multiplicity
 _atom_site_fract_x
 _atom_site_fract_y
 _atom_site_fract_z
 _atom_site_occupancy
  V  V0  1  0.14938343  0.08641940  0.59395671  1
  V  V1  1  0.24512753  0.68304461  0.08248290  1
  V  V2  1  0.87174177  0.04771472  0.33568257  1
  P  P3  1  0.45100838  0.30282238  0.26805183  1
  P  P4  1  0.64003628  0.93008804  0.50461417  1
  P  P5  1  0.74535233  0.70480627  0.00980896  1
  P  P6  1  0.04371060  0.29094049  0.78254420  1
  S  S7  1  0.99936783  0.88123679  0.13183951  1
  S  S8  1  0.89577776  0.49653381  0.92275339  1
  S  S9  1  0.48717380  0.81146657  0.96252561  1
  S  S10  1  0.30226454  0.38663855  0.72783977  1
  S  S11  1  0.40886602  0.91854447  0.62372375  1
  S  S12  1  0.00359151  0.00876796  0.79241598  1
  S  S13  1  0.83502793  0.20805942  0.55574346  1
  S  S14  1  0.51575500  0.84563738  0.29060116  1
  S  S15  1  0.25263840  0.19880515  0.39636171  1
  S  S16  1  0.90609533  0.81183785  0.46235847  1
  S  S17  1  0.76055068  0.29529497  0.24647604  1
  S  S18  1  0.29587707  0.40636167  0.12406681  1
