# generated using pymatgen
data_V3Pd
_symmetry_space_group_name_H-M   'P 1'
_cell_length_a   4.79551315
_cell_length_b   4.81188965
_cell_length_c   4.81210661
_cell_angle_alpha   89.81818390
_cell_angle_beta   89.92317200
_cell_angle_gamma   90.10175323
_symmetry_Int_Tables_number   1
_chemical_formula_structural   V3Pd
_chemical_formula_sum   'V6 Pd2'
_cell_volume   111.04083545
_cell_formula_units_Z   2
loop_
 _symmetry_equiv_pos_site_id
 _symmetry_equiv_pos_as_xyz
  1  'x, y, z'
loop_
 _atom_site_type_symbol
 _atom_site_label
 _atom_site_symmetry_multiplicity
 _atom_site_fract_x
 _atom_site_fract_y
 _atom_site_fract_z
 _atom_site_occupancy
  V  V0  1  0.41608566  0.33348545  0.53271329  1
  V  V1  1  0.66649091  0.83374202  0.28352547  1
  V  V2  1  0.41614544  0.33357522  0.03269789  1
  V  V3  1  0.91574329  0.58231372  0.78386784  1
  V  V4  1  0.16635005  0.83402687  0.28327844  1
  V  V5  1  0.91601866  0.08435474  0.78332818  1
  Pd  Pd6  1  0.41647333  0.83292556  0.78369820  1
  Pd  Pd7  1  0.91702199  0.33381811  0.28307822  1
