# generated using pymatgen
data_VAgHgO4
_symmetry_space_group_name_H-M   'P 1'
_cell_length_a   5.93156576
_cell_length_b   6.29917574
_cell_length_c   7.08028603
_cell_angle_alpha   79.34393311
_cell_angle_beta   78.02320099
_cell_angle_gamma   68.93265533
_symmetry_Int_Tables_number   1
_chemical_formula_structural   VAgHgO4
_chemical_formula_sum   'V2 Ag2 Hg2 O8'
_cell_volume   239.72108184
_cell_formula_units_Z   2
loop_
 _symmetry_equiv_pos_site_id
 _symmetry_equiv_pos_as_xyz
  1  'x, y, z'
loop_
 _atom_site_type_symbol
 _atom_site_label
 _atom_site_symmetry_multiplicity
 _atom_site_fract_x
 _atom_site_fract_y
 _atom_site_fract_z
 _atom_site_occupancy
  V  V0  1  0.36824694  0.50627178  0.44796512  1
  V  V1  1  0.88811809  0.76038796  0.94696862  1
  Ag  Ag2  1  0.72303712  0.88900858  0.44881728  1
  Ag  Ag3  1  0.07551988  0.17852132  0.42520669  1
  Hg  Hg4  1  0.21963629  0.07388945  0.95079380  1
  Hg  Hg5  1  0.57368004  0.38590452  0.92224050  1
  O  O6  1  0.49505797  0.33233708  0.28007433  1
  O  O7  1  0.06370357  0.47797695  0.03074460  1
  O  O8  1  0.42673358  0.77707404  0.37631893  1
  O  O9  1  0.43856585  0.35637027  0.66426408  1
  O  O10  1  0.95402580  0.92823148  0.70833367  1
  O  O11  1  0.59622598  0.74396330  0.89021730  1
  O  O12  1  0.03104033  0.53873825  0.47038612  1
  O  O13  1  0.92248648  0.92583787  0.10164154  1
