# generated using pymatgen
data_VF4
_symmetry_space_group_name_H-M   'P 1'
_cell_length_a   5.62454319
_cell_length_b   5.67743969
_cell_length_c   5.65819597
_cell_angle_alpha   99.66712189
_cell_angle_beta   114.45065308
_cell_angle_gamma   114.79161835
_symmetry_Int_Tables_number   1
_chemical_formula_structural   VF4
_chemical_formula_sum   'V2 F8'
_cell_volume   135.97683273
_cell_formula_units_Z   2
loop_
 _symmetry_equiv_pos_site_id
 _symmetry_equiv_pos_as_xyz
  1  'x, y, z'
loop_
 _atom_site_type_symbol
 _atom_site_label
 _atom_site_symmetry_multiplicity
 _atom_site_fract_x
 _atom_site_fract_y
 _atom_site_fract_z
 _atom_site_occupancy
  V  V0  1  0.29004571  0.90032476  0.80843759  1
  V  V1  1  0.78992712  0.89992106  0.30875030  1
  F  F2  1  0.84275895  0.70850402  0.56203198  1
  F  F3  1  0.79917294  0.65749723  0.07487287  1
  F  F4  1  0.24366108  0.10135404  0.56303889  1
  F  F5  1  0.29890457  0.16139005  0.06072123  1
  F  F6  1  0.78114796  0.14578550  0.53730005  1
  F  F7  1  0.29945824  0.65779847  0.57561791  1
  F  F8  1  0.74370396  0.10107030  0.06170918  1
  F  F9  1  0.34216148  0.70601988  0.06120070  1
