# generated using pymatgen
data_VFe3
_symmetry_space_group_name_H-M   'P 1'
_cell_length_a   2.49220157
_cell_length_b   2.54132223
_cell_length_c   7.88261223
_cell_angle_alpha   89.79814911
_cell_angle_beta   89.82473755
_cell_angle_gamma   103.31240845
_symmetry_Int_Tables_number   1
_chemical_formula_structural   VFe3
_chemical_formula_sum   'V1 Fe3'
_cell_volume   48.58222055
_cell_formula_units_Z   1
loop_
 _symmetry_equiv_pos_site_id
 _symmetry_equiv_pos_as_xyz
  1  'x, y, z'
loop_
 _atom_site_type_symbol
 _atom_site_label
 _atom_site_symmetry_multiplicity
 _atom_site_fract_x
 _atom_site_fract_y
 _atom_site_fract_z
 _atom_site_occupancy
  V  V0  1  0.45187783  0.68462372  0.01343492  1
  Fe  Fe1  1  0.45197693  0.68439484  0.51384640  1
  Fe  Fe2  1  0.95188522  0.18428451  0.26374716  1
  Fe  Fe3  1  0.95264208  0.18471053  0.76428998  1
