# generated using pymatgen
data_VGaMo3S8
_symmetry_space_group_name_H-M   'P 1'
_cell_length_a   6.96232557
_cell_length_b   6.96706533
_cell_length_c   6.98370981
_cell_angle_alpha   60.29543304
_cell_angle_beta   60.14992905
_cell_angle_gamma   59.94927597
_symmetry_Int_Tables_number   1
_chemical_formula_structural   VGaMo3S8
_chemical_formula_sum   'V1 Ga1 Mo3 S8'
_cell_volume   240.24796179
_cell_formula_units_Z   1
loop_
 _symmetry_equiv_pos_site_id
 _symmetry_equiv_pos_as_xyz
  1  'x, y, z'
loop_
 _atom_site_type_symbol
 _atom_site_label
 _atom_site_symmetry_multiplicity
 _atom_site_fract_x
 _atom_site_fract_y
 _atom_site_fract_z
 _atom_site_occupancy
  V  V0  1  0.96269268  0.51373112  0.67671740  1
  Ga  Ga1  1  0.56565607  0.11506556  0.85697883  1
  Mo  Mo2  1  0.96245784  0.93063980  0.25394765  1
  Mo  Mo3  1  0.96293741  0.51392102  0.25393561  1
  Mo  Mo4  1  0.38426998  0.51401949  0.25436181  1
  S  S5  1  0.70107812  0.25248006  0.45359990  1
  S  S6  1  0.19608137  0.74871588  0.97329128  1
  S  S7  1  0.19586268  0.74946457  0.49006069  1
  S  S8  1  0.70048887  0.71856111  0.99194098  1
  S  S9  1  0.67489308  0.74860716  0.49035516  1
  S  S10  1  0.16426173  0.25190273  0.99236482  1
  S  S11  1  0.70039409  0.25281692  0.99157399  1
  S  S12  1  0.19561000  0.22970483  0.48884991  1
