# generated using pymatgen
data_VO2
_symmetry_space_group_name_H-M   'P 1'
_cell_length_a   4.86771536
_cell_length_b   4.97033262
_cell_length_c   8.85756111
_cell_angle_alpha   89.70326233
_cell_angle_beta   90.63636017
_cell_angle_gamma   89.78303528
_symmetry_Int_Tables_number   1
_chemical_formula_structural   VO2
_chemical_formula_sum   'V6 O12'
_cell_volume   214.28361505
_cell_formula_units_Z   6
loop_
 _symmetry_equiv_pos_site_id
 _symmetry_equiv_pos_as_xyz
  1  'x, y, z'
loop_
 _atom_site_type_symbol
 _atom_site_label
 _atom_site_symmetry_multiplicity
 _atom_site_fract_x
 _atom_site_fract_y
 _atom_site_fract_z
 _atom_site_occupancy
  V  V0  1  0.71014732  0.03489761  0.63755608  1
  V  V1  1  0.71228218  0.53664780  0.44807351  1
  V  V2  1  0.71094036  0.03482589  0.03467754  1
  V  V3  1  0.23205569  0.53491563  0.13641469  1
  V  V4  1  0.21724933  0.03425652  0.32781017  1
  V  V5  1  0.21111886  0.03648002  0.89230984  1
  O  O6  1  0.98804843  0.76727414  0.97825152  1
  O  O7  1  0.91043979  0.73106927  0.60043961  1
  O  O8  1  0.98018801  0.22595443  0.11663680  1
  O  O9  1  0.44838461  0.86814600  0.12185971  1
  O  O10  1  0.44030744  0.36070147  0.29018402  1
  O  O11  1  0.95462024  0.22371516  0.44925442  1
  O  O12  1  0.43537286  0.31423965  0.97826165  1
  O  O13  1  0.51130688  0.34341294  0.60221666  1
  O  O14  1  0.94226378  0.17747431  0.78984457  1
  O  O15  1  0.47425094  0.86288887  0.45092708  1
  O  O16  1  0.46298280  0.87347007  0.78708667  1
  O  O17  1  0.00235508  0.72950107  0.28850251  1
