# generated using pymatgen
data_VPO5
_symmetry_space_group_name_H-M   'P 1'
_cell_length_a   4.96012831
_cell_length_b   5.89707422
_cell_length_c   7.28931904
_cell_angle_alpha   105.92337036
_cell_angle_beta   92.52526093
_cell_angle_gamma   97.50099182
_symmetry_Int_Tables_number   1
_chemical_formula_structural   VPO5
_chemical_formula_sum   'V2 P2 O10'
_cell_volume   202.56402118
_cell_formula_units_Z   2
loop_
 _symmetry_equiv_pos_site_id
 _symmetry_equiv_pos_as_xyz
  1  'x, y, z'
loop_
 _atom_site_type_symbol
 _atom_site_label
 _atom_site_symmetry_multiplicity
 _atom_site_fract_x
 _atom_site_fract_y
 _atom_site_fract_z
 _atom_site_occupancy
  V  V0  1  0.36030954  0.37299085  0.73576123  1
  V  V1  1  0.38078144  0.38775656  0.26016203  1
  P  P2  1  0.34399652  0.94172174  0.40183219  1
  P  P3  1  0.83142966  0.22177733  0.98197103  1
  O  O4  1  0.67465448  0.30384681  0.83586848  1
  O  O5  1  0.15998574  0.30088580  0.98428303  1
  O  O6  1  0.52978903  0.46884015  0.52483582  1
  O  O7  1  0.77153230  0.94909084  0.94803268  1
  O  O8  1  0.24841782  0.08682303  0.26360029  1
  O  O9  1  0.23440592  0.05685481  0.60871261  1
  O  O10  1  0.71713966  0.36351714  0.17371790  1
  O  O11  1  0.17772673  0.57790434  0.75527906  1
  O  O12  1  0.65177625  0.97679126  0.41022179  1
  O  O13  1  0.24936724  0.66780394  0.30619082  1
