# generated using pymatgen
data_Y2(MgZn)3
_symmetry_space_group_name_H-M   'P 1'
_cell_length_a   4.59687233
_cell_length_b   6.33517170
_cell_length_c   6.34767675
_cell_angle_alpha   109.02860260
_cell_angle_beta   90.26956177
_cell_angle_gamma   89.96778107
_symmetry_Int_Tables_number   1
_chemical_formula_structural   Y2(MgZn)3
_chemical_formula_sum   'Y2 Mg3 Zn3'
_cell_volume   174.75352801
_cell_formula_units_Z   1
loop_
 _symmetry_equiv_pos_site_id
 _symmetry_equiv_pos_as_xyz
  1  'x, y, z'
loop_
 _atom_site_type_symbol
 _atom_site_label
 _atom_site_symmetry_multiplicity
 _atom_site_fract_x
 _atom_site_fract_y
 _atom_site_fract_z
 _atom_site_occupancy
  Y  Y0  1  0.03997884  0.11909731  0.50649387  1
  Y  Y1  1  0.04029030  0.67782027  0.75834656  1
  Mg  Mg2  1  0.54056346  0.44479382  0.37069875  1
  Mg  Mg3  1  0.53978992  0.36147401  0.89049470  1
  Mg  Mg4  1  0.54012769  0.90072811  0.13512982  1
  Zn  Zn5  1  0.03994974  0.62832797  0.21033509  1
  Zn  Zn6  1  0.04016612  0.18038231  0.05324118  1
  Zn  Zn7  1  0.53991622  0.90289044  0.65350741  1
