# generated using pymatgen
data_Y2CuRu
_symmetry_space_group_name_H-M   'P 1'
_cell_length_a   4.88022804
_cell_length_b   4.87248707
_cell_length_c   4.87144327
_cell_angle_alpha   59.64470291
_cell_angle_beta   59.93841934
_cell_angle_gamma   59.84940338
_symmetry_Int_Tables_number   1
_chemical_formula_structural   Y2CuRu
_chemical_formula_sum   'Y2 Cu1 Ru1'
_cell_volume   81.55651530
_cell_formula_units_Z   1
loop_
 _symmetry_equiv_pos_site_id
 _symmetry_equiv_pos_as_xyz
  1  'x, y, z'
loop_
 _atom_site_type_symbol
 _atom_site_label
 _atom_site_symmetry_multiplicity
 _atom_site_fract_x
 _atom_site_fract_y
 _atom_site_fract_z
 _atom_site_occupancy
  Y  Y0  1  0.26309717  0.47571319  0.81770808  1
  Y  Y1  1  0.76324016  0.97548181  0.31761786  1
  Cu  Cu2  1  0.01319029  0.22590904  0.56720406  1
  Ru  Ru3  1  0.51284391  0.72568667  0.06742314  1
