# generated using pymatgen
data_Y4SiS3
_symmetry_space_group_name_H-M   'P 1'
_cell_length_a   5.63951826
_cell_length_b   5.62475824
_cell_length_c   6.88621664
_cell_angle_alpha   114.05586243
_cell_angle_beta   114.12223053
_cell_angle_gamma   90.16737366
_symmetry_Int_Tables_number   1
_chemical_formula_structural   Y4SiS3
_chemical_formula_sum   'Y4 Si1 S3'
_cell_volume   178.24194700
_cell_formula_units_Z   1
loop_
 _symmetry_equiv_pos_site_id
 _symmetry_equiv_pos_as_xyz
  1  'x, y, z'
loop_
 _atom_site_type_symbol
 _atom_site_label
 _atom_site_symmetry_multiplicity
 _atom_site_fract_x
 _atom_site_fract_y
 _atom_site_fract_z
 _atom_site_occupancy
  Y  Y0  1  0.22681390  0.94627714  0.88901919  1
  Y  Y1  1  0.97735441  0.19545968  0.38940746  1
  Y  Y2  1  0.47642827  0.69608569  0.38943240  1
  Y  Y3  1  0.72713614  0.44495848  0.88936299  1
  Si  Si4  1  0.47664323  0.19498268  0.39021951  1
  S  S5  1  0.22674017  0.44556159  0.88913858  1
  S  S6  1  0.97710586  0.69510603  0.38933396  1
  S  S7  1  0.72638404  0.94627243  0.88945645  1
