# generated using pymatgen
data_Y6CoI10
_symmetry_space_group_name_H-M   'P 1'
_cell_length_a   9.37494755
_cell_length_b   9.44490528
_cell_length_c   9.45798683
_cell_angle_alpha   106.94137573
_cell_angle_beta   106.60514069
_cell_angle_gamma   107.00445557
_symmetry_Int_Tables_number   1
_chemical_formula_structural   Y6CoI10
_chemical_formula_sum   'Y6 Co1 I10'
_cell_volume   700.26698726
_cell_formula_units_Z   1
loop_
 _symmetry_equiv_pos_site_id
 _symmetry_equiv_pos_as_xyz
  1  'x, y, z'
loop_
 _atom_site_type_symbol
 _atom_site_label
 _atom_site_symmetry_multiplicity
 _atom_site_fract_x
 _atom_site_fract_y
 _atom_site_fract_z
 _atom_site_occupancy
  Y  Y0  1  0.65119070  0.98003888  0.59279746  1
  Y  Y1  1  0.68795186  0.56045908  0.77603269  1
  Y  Y2  1  0.77603441  0.28834024  0.96473557  1
  Y  Y3  1  0.60147077  0.25460607  0.39728591  1
  Y  Y4  1  0.96931815  0.38309330  0.72062624  1
  Y  Y5  1  0.38307676  0.18696345  0.66789883  1
  Co  Co6  1  0.67870414  0.27767476  0.68324143  1
  I  I7  1  0.55104142  0.88120031  0.22881149  1
  I  I8  1  0.77696842  0.95290619  0.91825032  1
  I  I9  1  0.97136837  0.63732874  0.06600065  1
  I  I10  1  0.62046063  0.60178524  0.46382183  1
  I  I11  1  0.93121016  0.36279047  0.35605991  1
  I  I12  1  0.00798881  0.05818979  0.62892383  1
  I  I13  1  0.45604610  0.22572768  0.01717415  1
  I  I14  1  0.29628900  0.81657541  0.56024212  1
  I  I15  1  0.34443915  0.51181239  0.79383630  1
  I  I16  1  0.23487200  0.12923831  0.30342641  1
