# generated using pymatgen
data_Y
_symmetry_space_group_name_H-M   'P 1'
_cell_length_a   5.11830282
_cell_length_b   5.13233376
_cell_length_c   6.22286272
_cell_angle_alpha   114.51992798
_cell_angle_beta   114.63305664
_cell_angle_gamma   90.24591064
_symmetry_Int_Tables_number   1
_chemical_formula_structural   Y
_chemical_formula_sum   Y4
_cell_volume   132.04856037
_cell_formula_units_Z   4
loop_
 _symmetry_equiv_pos_site_id
 _symmetry_equiv_pos_as_xyz
  1  'x, y, z'
loop_
 _atom_site_type_symbol
 _atom_site_label
 _atom_site_symmetry_multiplicity
 _atom_site_fract_x
 _atom_site_fract_y
 _atom_site_fract_z
 _atom_site_occupancy
  Y  Y0  1  0.81744850  0.55522633  0.61073190  1
  Y  Y1  1  0.56763703  0.80562347  0.11032414  1
  Y  Y2  1  0.06680842  0.30526334  0.11080882  1
  Y  Y3  1  0.31622875  0.05549702  0.61069763  1
