# generated using pymatgen
data_YAl2Pd5
_symmetry_space_group_name_H-M   'P 1'
_cell_length_a   4.26856470
_cell_length_b   4.25701380
_cell_length_c   7.22912264
_cell_angle_alpha   89.89294434
_cell_angle_beta   89.86933899
_cell_angle_gamma   89.96607971
_symmetry_Int_Tables_number   1
_chemical_formula_structural   YAl2Pd5
_chemical_formula_sum   'Y1 Al2 Pd5'
_cell_volume   131.36224333
_cell_formula_units_Z   1
loop_
 _symmetry_equiv_pos_site_id
 _symmetry_equiv_pos_as_xyz
  1  'x, y, z'
loop_
 _atom_site_type_symbol
 _atom_site_label
 _atom_site_symmetry_multiplicity
 _atom_site_fract_x
 _atom_site_fract_y
 _atom_site_fract_z
 _atom_site_occupancy
  Y  Y0  1  0.18124461  0.83445889  0.43266636  1
  Al  Al1  1  0.18079638  0.83419234  0.93251055  1
  Al  Al2  1  0.68080974  0.33448452  0.93150574  1
  Pd  Pd3  1  0.68084377  0.83482754  0.13966849  1
  Pd  Pd4  1  0.68104506  0.33492786  0.43174356  1
  Pd  Pd5  1  0.18066634  0.33466923  0.13901605  1
  Pd  Pd6  1  0.18094447  0.33476672  0.72163337  1
  Pd  Pd7  1  0.68124259  0.83492208  0.72239166  1
