# generated using pymatgen
data_YAlZn
_symmetry_space_group_name_H-M   'P 1'
_cell_length_a   4.46957922
_cell_length_b   5.65313768
_cell_length_c   5.69940233
_cell_angle_alpha   77.70999908
_cell_angle_beta   66.87416077
_cell_angle_gamma   66.52856445
_symmetry_Int_Tables_number   1
_chemical_formula_structural   YAlZn
_chemical_formula_sum   'Y2 Al2 Zn2'
_cell_volume   121.20580589
_cell_formula_units_Z   2
loop_
 _symmetry_equiv_pos_site_id
 _symmetry_equiv_pos_as_xyz
  1  'x, y, z'
loop_
 _atom_site_type_symbol
 _atom_site_label
 _atom_site_symmetry_multiplicity
 _atom_site_fract_x
 _atom_site_fract_y
 _atom_site_fract_z
 _atom_site_occupancy
  Y  Y0  1  0.74383843  0.69260037  0.35952130  1
  Y  Y1  1  0.82228708  0.12381124  0.77026057  1
  Al  Al2  1  0.11686122  0.12570353  0.17913523  1
  Al  Al3  1  0.44695678  0.68877059  0.95624799  1
  Zn  Zn4  1  0.11800037  0.52049226  0.77946174  1
  Zn  Zn5  1  0.44649154  0.28999269  0.35007182  1
