# generated using pymatgen
data_Yb(ZnGa)2
_symmetry_space_group_name_H-M   'P 1'
_cell_length_a   4.16486025
_cell_length_b   4.14996052
_cell_length_c   6.13700390
_cell_angle_alpha   109.47698212
_cell_angle_beta   109.69540405
_cell_angle_gamma   90.28419495
_symmetry_Int_Tables_number   1
_chemical_formula_structural   Yb(ZnGa)2
_chemical_formula_sum   'Yb1 Zn2 Ga2'
_cell_volume   93.32552839
_cell_formula_units_Z   1
loop_
 _symmetry_equiv_pos_site_id
 _symmetry_equiv_pos_as_xyz
  1  'x, y, z'
loop_
 _atom_site_type_symbol
 _atom_site_label
 _atom_site_symmetry_multiplicity
 _atom_site_fract_x
 _atom_site_fract_y
 _atom_site_fract_z
 _atom_site_occupancy
  Yb  Yb0  1  0.26557893  0.48214152  0.14991663  1
  Zn  Zn1  1  0.65359223  0.87036091  0.92554605  1
  Zn  Zn2  1  0.87555271  0.09255787  0.37125528  1
  Ga  Ga3  1  0.51501733  0.23191123  0.65006381  1
  Ga  Ga4  1  0.01540406  0.73262829  0.64965498  1
