# generated using pymatgen
data_Yb2AgAu
_symmetry_space_group_name_H-M   'P 1'
_cell_length_a   5.03359652
_cell_length_b   5.04796696
_cell_length_c   5.04422426
_cell_angle_alpha   59.87198639
_cell_angle_beta   59.87265396
_cell_angle_gamma   59.96109390
_symmetry_Int_Tables_number   1
_chemical_formula_structural   Yb2AgAu
_chemical_formula_sum   'Yb2 Ag1 Au1'
_cell_volume   90.42865900
_cell_formula_units_Z   1
loop_
 _symmetry_equiv_pos_site_id
 _symmetry_equiv_pos_as_xyz
  1  'x, y, z'
loop_
 _atom_site_type_symbol
 _atom_site_label
 _atom_site_symmetry_multiplicity
 _atom_site_fract_x
 _atom_site_fract_y
 _atom_site_fract_z
 _atom_site_occupancy
  Yb  Yb0  1  0.11960453  0.83098757  0.73869455  1
  Yb  Yb1  1  0.61936396  0.33096015  0.23894104  1
  Ag  Ag2  1  0.36949885  0.08066285  0.98901892  1
  Au  Au3  1  0.86987102  0.58111417  0.48906922  1
