# generated using pymatgen
data_Yb2AgPd
_symmetry_space_group_name_H-M   'P 1'
_cell_length_a   5.00357294
_cell_length_b   5.00932026
_cell_length_c   4.99807167
_cell_angle_alpha   59.88464355
_cell_angle_beta   60.14002991
_cell_angle_gamma   59.98467636
_symmetry_Int_Tables_number   1
_chemical_formula_structural   Yb2AgPd
_chemical_formula_sum   'Yb2 Ag1 Pd1'
_cell_volume   88.58757580
_cell_formula_units_Z   1
loop_
 _symmetry_equiv_pos_site_id
 _symmetry_equiv_pos_as_xyz
  1  'x, y, z'
loop_
 _atom_site_type_symbol
 _atom_site_label
 _atom_site_symmetry_multiplicity
 _atom_site_fract_x
 _atom_site_fract_y
 _atom_site_fract_z
 _atom_site_occupancy
  Yb  Yb0  1  0.15915106  0.70459294  0.05922955  1
  Yb  Yb1  1  0.65893883  0.20462508  0.55906707  1
  Ag  Ag2  1  0.90940946  0.45428389  0.80928600  1
  Pd  Pd3  1  0.40935817  0.95437533  0.30926469  1
