# generated using pymatgen
data_Yb2AgPb
_symmetry_space_group_name_H-M   'P 1'
_cell_length_a   5.30018377
_cell_length_b   5.28650904
_cell_length_c   5.29498816
_cell_angle_alpha   59.94623184
_cell_angle_beta   60.07952118
_cell_angle_gamma   60.23299026
_symmetry_Int_Tables_number   1
_chemical_formula_structural   Yb2AgPb
_chemical_formula_sum   'Yb2 Ag1 Pb1'
_cell_volume   105.11202862
_cell_formula_units_Z   1
loop_
 _symmetry_equiv_pos_site_id
 _symmetry_equiv_pos_as_xyz
  1  'x, y, z'
loop_
 _atom_site_type_symbol
 _atom_site_label
 _atom_site_symmetry_multiplicity
 _atom_site_fract_x
 _atom_site_fract_y
 _atom_site_fract_z
 _atom_site_occupancy
  Yb  Yb0  1  0.85819709  0.68670678  0.95926070  1
  Yb  Yb1  1  0.35787326  0.18670405  0.45921043  1
  Ag  Ag2  1  0.60809672  0.43596002  0.71036071  1
  Pb  Pb3  1  0.10820914  0.93629360  0.20992458  1
