# generated using pymatgen
data_Yb2BiAu
_symmetry_space_group_name_H-M   'P 1'
_cell_length_a   5.26689196
_cell_length_b   5.26544189
_cell_length_c   5.25613499
_cell_angle_alpha   59.84876633
_cell_angle_beta   59.89573288
_cell_angle_gamma   59.82182693
_symmetry_Int_Tables_number   1
_chemical_formula_structural   Yb2BiAu
_chemical_formula_sum   'Yb2 Bi1 Au1'
_cell_volume   102.73379886
_cell_formula_units_Z   1
loop_
 _symmetry_equiv_pos_site_id
 _symmetry_equiv_pos_as_xyz
  1  'x, y, z'
loop_
 _atom_site_type_symbol
 _atom_site_label
 _atom_site_symmetry_multiplicity
 _atom_site_fract_x
 _atom_site_fract_y
 _atom_site_fract_z
 _atom_site_occupancy
  Yb  Yb0  1  0.75884527  0.80184901  0.27729636  1
  Yb  Yb1  1  0.25811589  0.30209917  0.77770650  1
  Bi  Bi2  1  0.50806689  0.55177045  0.02785992  1
  Au  Au3  1  0.00790857  0.05163890  0.52805585  1
