# generated using pymatgen
data_Yb2Si2O7
_symmetry_space_group_name_H-M   'P 1'
_cell_length_a   5.21759701
_cell_length_b   5.64370060
_cell_length_c   6.02983141
_cell_angle_alpha   105.20647430
_cell_angle_beta   99.68936157
_cell_angle_gamma   109.93920898
_symmetry_Int_Tables_number   1
_chemical_formula_structural   Yb2Si2O7
_chemical_formula_sum   'Yb2 Si2 O7'
_cell_volume   154.43096772
_cell_formula_units_Z   1
loop_
 _symmetry_equiv_pos_site_id
 _symmetry_equiv_pos_as_xyz
  1  'x, y, z'
loop_
 _atom_site_type_symbol
 _atom_site_label
 _atom_site_symmetry_multiplicity
 _atom_site_fract_x
 _atom_site_fract_y
 _atom_site_fract_z
 _atom_site_occupancy
  Yb  Yb0  1  0.84378082  0.63959676  0.60311466  1
  Yb  Yb1  1  0.21302514  0.25522658  0.10273254  1
  Si  Si2  1  0.91129631  0.61313415  0.09557337  1
  Si  Si3  1  0.41619855  0.00650154  0.55461264  1
  O  O4  1  0.69236213  0.94920546  0.52433312  1
  O  O5  1  0.28570828  0.98301387  0.78327245  1
  O  O6  1  0.18032695  0.72378826  0.34391403  1
  O  O7  1  0.00303058  0.46699321  0.87782568  1
  O  O8  1  0.83445746  0.83955586  0.99707627  1
  O  O9  1  0.39359021  0.27285689  0.49430540  1
  O  O10  1  0.67308944  0.44524413  0.17287277  1
