# generated using pymatgen
data_Yb4As2O
_symmetry_space_group_name_H-M   'P 1'
_cell_length_a   4.48561859
_cell_length_b   4.49569416
_cell_length_c   8.45583630
_cell_angle_alpha   105.26081848
_cell_angle_beta   105.41525269
_cell_angle_gamma   90.26606750
_symmetry_Int_Tables_number   1
_chemical_formula_structural   Yb4As2O
_chemical_formula_sum   'Yb4 As2 O1'
_cell_volume   158.07786093
_cell_formula_units_Z   1
loop_
 _symmetry_equiv_pos_site_id
 _symmetry_equiv_pos_as_xyz
  1  'x, y, z'
loop_
 _atom_site_type_symbol
 _atom_site_label
 _atom_site_symmetry_multiplicity
 _atom_site_fract_x
 _atom_site_fract_y
 _atom_site_fract_z
 _atom_site_occupancy
  Yb  Yb0  1  0.99676722  0.76139420  0.30444610  1
  Yb  Yb1  1  0.33847389  0.09864018  0.98482662  1
  Yb  Yb2  1  0.66721183  0.93017638  0.64526165  1
  Yb  Yb3  1  0.16753252  0.42891073  0.64547139  1
  As  As4  1  0.53270733  0.29127154  0.37340698  1
  As  As5  1  0.80391371  0.56687158  0.92105651  1
  O  O6  1  0.16657372  0.92930156  0.64392531  1
