# generated using pymatgen
data_YbBi3
_symmetry_space_group_name_H-M   'P 1'
_cell_length_a   4.71945047
_cell_length_b   4.70875168
_cell_length_c   6.45758057
_cell_angle_alpha   111.62643433
_cell_angle_beta   111.46439362
_cell_angle_gamma   90.22039032
_symmetry_Int_Tables_number   1
_chemical_formula_structural   YbBi3
_chemical_formula_sum   'Yb1 Bi3'
_cell_volume   122.54490982
_cell_formula_units_Z   1
loop_
 _symmetry_equiv_pos_site_id
 _symmetry_equiv_pos_as_xyz
  1  'x, y, z'
loop_
 _atom_site_type_symbol
 _atom_site_label
 _atom_site_symmetry_multiplicity
 _atom_site_fract_x
 _atom_site_fract_y
 _atom_site_fract_z
 _atom_site_occupancy
  Yb  Yb0  1  0.50606614  0.80918962  0.19787605  1
  Bi  Bi1  1  0.00515771  0.30910408  0.19830012  1
  Bi  Bi2  1  0.25541282  0.05842187  0.69836849  1
  Bi  Bi3  1  0.75475657  0.55866075  0.69892532  1
