# generated using pymatgen
data_YbCu2Ni3
_symmetry_space_group_name_H-M   'P 1'
_cell_length_a   4.80360746
_cell_length_b   4.82169580
_cell_length_c   4.79386139
_cell_angle_alpha   59.93302536
_cell_angle_beta   59.83985901
_cell_angle_gamma   59.74908447
_symmetry_Int_Tables_number   1
_chemical_formula_structural   YbCu2Ni3
_chemical_formula_sum   'Yb1 Cu2 Ni3'
_cell_volume   78.22798569
_cell_formula_units_Z   1
loop_
 _symmetry_equiv_pos_site_id
 _symmetry_equiv_pos_as_xyz
  1  'x, y, z'
loop_
 _atom_site_type_symbol
 _atom_site_label
 _atom_site_symmetry_multiplicity
 _atom_site_fract_x
 _atom_site_fract_y
 _atom_site_fract_z
 _atom_site_occupancy
  Yb  Yb0  1  0.27861673  0.74599159  0.06204518  1
  Cu  Cu1  1  0.02695854  0.49517295  0.81077832  1
  Cu  Cu2  1  0.65221614  0.12258466  0.43708420  1
  Ni  Ni3  1  0.15131216  0.12218197  0.43703592  1
  Ni  Ni4  1  0.65337914  0.12266268  0.93568498  1
  Ni  Ni5  1  0.65267426  0.61951411  0.43787336  1
