# generated using pymatgen
data_YbCuBi
_symmetry_space_group_name_H-M   'P 1'
_cell_length_a   4.59047222
_cell_length_b   4.59562826
_cell_length_c   7.82795095
_cell_angle_alpha   89.80591583
_cell_angle_beta   89.78907776
_cell_angle_gamma   120.66558075
_symmetry_Int_Tables_number   1
_chemical_formula_structural   YbCuBi
_chemical_formula_sum   'Yb2 Cu2 Bi2'
_cell_volume   142.04237222
_cell_formula_units_Z   2
loop_
 _symmetry_equiv_pos_site_id
 _symmetry_equiv_pos_as_xyz
  1  'x, y, z'
loop_
 _atom_site_type_symbol
 _atom_site_label
 _atom_site_symmetry_multiplicity
 _atom_site_fract_x
 _atom_site_fract_y
 _atom_site_fract_z
 _atom_site_occupancy
  Yb  Yb0  1  0.13285364  0.68234766  0.27976200  1
  Yb  Yb1  1  0.13281807  0.68230206  0.77972627  1
  Cu  Cu2  1  0.46638599  0.34897411  0.02911338  1
  Cu  Cu3  1  0.79955071  0.01521692  0.52921897  1
  Bi  Bi4  1  0.46600416  0.34886762  0.52881312  1
  Bi  Bi5  1  0.79905522  0.01542222  0.02892731  1
