# generated using pymatgen
data_YbNi5
_symmetry_space_group_name_H-M   'P 1'
_cell_length_a   3.99810314
_cell_length_b   4.82305050
_cell_length_c   4.75601912
_cell_angle_alpha   119.65691376
_cell_angle_beta   89.95257568
_cell_angle_gamma   89.91429138
_symmetry_Int_Tables_number   1
_chemical_formula_structural   YbNi5
_chemical_formula_sum   'Yb1 Ni5'
_cell_volume   79.69662003
_cell_formula_units_Z   1
loop_
 _symmetry_equiv_pos_site_id
 _symmetry_equiv_pos_as_xyz
  1  'x, y, z'
loop_
 _atom_site_type_symbol
 _atom_site_label
 _atom_site_symmetry_multiplicity
 _atom_site_fract_x
 _atom_site_fract_y
 _atom_site_fract_z
 _atom_site_occupancy
  Yb  Yb0  1  0.06663496  0.47709158  0.42617595  1
  Ni  Ni1  1  0.06668419  0.81248212  0.09325272  1
  Ni  Ni2  1  0.06652958  0.14588788  0.75989264  1
  Ni  Ni3  1  0.56673598  0.97797436  0.42628324  1
  Ni  Ni4  1  0.56635278  0.47730988  0.92683053  1
  Ni  Ni5  1  0.56659085  0.97732687  0.92633671  1
