# generated using pymatgen
data_YbSm3
_symmetry_space_group_name_H-M   'P 1'
_cell_length_a   5.17800474
_cell_length_b   5.17524719
_cell_length_c   5.17657948
_cell_angle_alpha   89.56328583
_cell_angle_beta   89.86087799
_cell_angle_gamma   90.05102539
_symmetry_Int_Tables_number   1
_chemical_formula_structural   YbSm3
_chemical_formula_sum   'Yb1 Sm3'
_cell_volume   138.71465720
_cell_formula_units_Z   1
loop_
 _symmetry_equiv_pos_site_id
 _symmetry_equiv_pos_as_xyz
  1  'x, y, z'
loop_
 _atom_site_type_symbol
 _atom_site_label
 _atom_site_symmetry_multiplicity
 _atom_site_fract_x
 _atom_site_fract_y
 _atom_site_fract_z
 _atom_site_occupancy
  Yb  Yb0  1  0.10932823  0.91392744  0.00542411  1
  Sm  Sm1  1  0.10951144  0.41413036  0.50605035  1
  Sm  Sm2  1  0.60930705  0.41371417  0.00609751  1
  Sm  Sm3  1  0.60992509  0.91430891  0.50607532  1
