# generated using pymatgen
data_YbSm4S5
_symmetry_space_group_name_H-M   'P 1'
_cell_length_a   4.01157570
_cell_length_b   3.99179745
_cell_length_c   16.11767387
_cell_angle_alpha   82.60669708
_cell_angle_beta   82.67192841
_cell_angle_gamma   59.44934464
_symmetry_Int_Tables_number   1
_chemical_formula_structural   YbSm4S5
_chemical_formula_sum   'Yb1 Sm4 S5'
_cell_volume   219.83727173
_cell_formula_units_Z   1
loop_
 _symmetry_equiv_pos_site_id
 _symmetry_equiv_pos_as_xyz
  1  'x, y, z'
loop_
 _atom_site_type_symbol
 _atom_site_label
 _atom_site_symmetry_multiplicity
 _atom_site_fract_x
 _atom_site_fract_y
 _atom_site_fract_z
 _atom_site_occupancy
  Yb  Yb0  1  0.50808644  0.40744072  0.00902748  1
  Sm  Sm1  1  0.30806506  0.20741816  0.60910821  1
  Sm  Sm2  1  0.10883547  0.00972366  0.20550127  1
  Sm  Sm3  1  0.90792954  0.80794257  0.81194985  1
  Sm  Sm4  1  0.70910132  0.60962868  0.40777332  1
  S  S5  1  0.00907445  0.90845484  0.50833303  1
  S  S6  1  0.60804325  0.50899577  0.70876193  1
  S  S7  1  0.80984449  0.70989674  0.10566173  1
  S  S8  1  0.20843458  0.10823070  0.90910035  1
  S  S9  1  0.40823230  0.30921945  0.30796582  1
