# generated using pymatgen
data_YbThRh2
_symmetry_space_group_name_H-M   'P 1'
_cell_length_a   4.88994455
_cell_length_b   4.88034296
_cell_length_c   4.87518120
_cell_angle_alpha   59.82641983
_cell_angle_beta   59.89469147
_cell_angle_gamma   60.01417923
_symmetry_Int_Tables_number   1
_chemical_formula_structural   YbThRh2
_chemical_formula_sum   'Yb1 Th1 Rh2'
_cell_volume   82.10270533
_cell_formula_units_Z   1
loop_
 _symmetry_equiv_pos_site_id
 _symmetry_equiv_pos_as_xyz
  1  'x, y, z'
loop_
 _atom_site_type_symbol
 _atom_site_label
 _atom_site_symmetry_multiplicity
 _atom_site_fract_x
 _atom_site_fract_y
 _atom_site_fract_z
 _atom_site_occupancy
  Yb  Yb0  1  0.67915875  0.52722853  0.39135611  1
  Th  Th1  1  0.17877200  0.02747627  0.89147347  1
  Rh  Rh2  1  0.92873329  0.77754468  0.64097130  1
  Rh  Rh3  1  0.42876562  0.27779323  0.14127880  1
