# generated using pymatgen
data_YbTlHg2
_symmetry_space_group_name_H-M   'P 1'
_cell_length_a   5.28899956
_cell_length_b   5.29226351
_cell_length_c   5.27851534
_cell_angle_alpha   59.90451050
_cell_angle_beta   60.04269791
_cell_angle_gamma   60.19003296
_symmetry_Int_Tables_number   1
_chemical_formula_structural   YbTlHg2
_chemical_formula_sum   'Yb1 Tl1 Hg2'
_cell_volume   104.58188874
_cell_formula_units_Z   1
loop_
 _symmetry_equiv_pos_site_id
 _symmetry_equiv_pos_as_xyz
  1  'x, y, z'
loop_
 _atom_site_type_symbol
 _atom_site_label
 _atom_site_symmetry_multiplicity
 _atom_site_fract_x
 _atom_site_fract_y
 _atom_site_fract_z
 _atom_site_occupancy
  Yb  Yb0  1  0.93158358  0.33831245  0.94177741  1
  Tl  Tl1  1  0.43179387  0.83802891  0.44172108  1
  Hg  Hg2  1  0.18110165  0.58857507  0.19207166  1
  Hg  Hg3  1  0.68177313  0.08811826  0.69149715  1
