# generated using pymatgen
data_YbZnIn
_symmetry_space_group_name_H-M   'P 1'
_cell_length_a   4.77707767
_cell_length_b   4.74933767
_cell_length_c   7.03486586
_cell_angle_alpha   89.89302826
_cell_angle_beta   89.89617920
_cell_angle_gamma   120.39730072
_symmetry_Int_Tables_number   1
_chemical_formula_structural   YbZnIn
_chemical_formula_sum   'Yb2 Zn2 In2'
_cell_volume   137.66583930
_cell_formula_units_Z   2
loop_
 _symmetry_equiv_pos_site_id
 _symmetry_equiv_pos_as_xyz
  1  'x, y, z'
loop_
 _atom_site_type_symbol
 _atom_site_label
 _atom_site_symmetry_multiplicity
 _atom_site_fract_x
 _atom_site_fract_y
 _atom_site_fract_z
 _atom_site_occupancy
  Yb  Yb0  1  0.74410361  0.53783882  0.87637806  1
  Yb  Yb1  1  0.74380362  0.53752416  0.37523243  1
  Zn  Zn2  1  0.07700090  0.20444003  0.12717029  1
  Zn  Zn3  1  0.41062337  0.87110877  0.62715858  1
  In  In4  1  0.07727682  0.20392869  0.62757689  1
  In  In5  1  0.41036078  0.87114871  0.12807478  1
