# generated using pymatgen
data_YErCd2
_symmetry_space_group_name_H-M   'P 1'
_cell_length_a   5.26965761
_cell_length_b   5.27214050
_cell_length_c   5.27268505
_cell_angle_alpha   59.82395935
_cell_angle_beta   60.05033112
_cell_angle_gamma   59.96949005
_symmetry_Int_Tables_number   1
_chemical_formula_structural   YErCd2
_chemical_formula_sum   'Y1 Er1 Cd2'
_cell_volume   103.45929402
_cell_formula_units_Z   1
loop_
 _symmetry_equiv_pos_site_id
 _symmetry_equiv_pos_as_xyz
  1  'x, y, z'
loop_
 _atom_site_type_symbol
 _atom_site_label
 _atom_site_symmetry_multiplicity
 _atom_site_fract_x
 _atom_site_fract_y
 _atom_site_fract_z
 _atom_site_occupancy
  Y  Y0  1  0.74391603  0.21081506  0.49160388  1
  Er  Er1  1  0.24374533  0.71054381  0.99137020  1
  Cd  Cd2  1  0.99344635  0.46081740  0.74184179  1
  Cd  Cd3  1  0.49331379  0.96046168  0.24187006  1
