# generated using pymatgen
data_YErTl2
_symmetry_space_group_name_H-M   'P 1'
_cell_length_a   5.31876659
_cell_length_b   5.32534695
_cell_length_c   5.32686520
_cell_angle_alpha   59.79447937
_cell_angle_beta   59.90340805
_cell_angle_gamma   60.07643890
_symmetry_Int_Tables_number   1
_chemical_formula_structural   YErTl2
_chemical_formula_sum   'Y1 Er1 Tl2'
_cell_volume   106.50463269
_cell_formula_units_Z   1
loop_
 _symmetry_equiv_pos_site_id
 _symmetry_equiv_pos_as_xyz
  1  'x, y, z'
loop_
 _atom_site_type_symbol
 _atom_site_label
 _atom_site_symmetry_multiplicity
 _atom_site_fract_x
 _atom_site_fract_y
 _atom_site_fract_z
 _atom_site_occupancy
  Y  Y0  1  0.90687692  0.96223879  0.85997444  1
  Er  Er1  1  0.40680477  0.46230552  0.35975733  1
  Tl  Tl2  1  0.65682083  0.71244770  0.61005247  1
  Tl  Tl3  1  0.15691394  0.21265359  0.10982335  1
