# generated using pymatgen
data_YIr2
_symmetry_space_group_name_H-M   'P 1'
_cell_length_a   4.46286869
_cell_length_b   5.57417583
_cell_length_c   5.58833122
_cell_angle_alpha   75.69855499
_cell_angle_beta   66.22528076
_cell_angle_gamma   66.31813812
_symmetry_Int_Tables_number   1
_chemical_formula_structural   YIr2
_chemical_formula_sum   'Y2 Ir4'
_cell_volume   115.90671885
_cell_formula_units_Z   2
loop_
 _symmetry_equiv_pos_site_id
 _symmetry_equiv_pos_as_xyz
  1  'x, y, z'
loop_
 _atom_site_type_symbol
 _atom_site_label
 _atom_site_symmetry_multiplicity
 _atom_site_fract_x
 _atom_site_fract_y
 _atom_site_fract_z
 _atom_site_occupancy
  Y  Y0  1  0.54152739  0.41630429  0.73446697  1
  Y  Y1  1  0.44069675  0.01469782  0.32950059  1
  Ir  Ir2  1  0.83224493  0.42470101  0.13859652  1
  Ir  Ir3  1  0.14833456  0.00817714  0.91813153  1
  Ir  Ir4  1  0.83215636  0.82062489  0.74020547  1
  Ir  Ir5  1  0.14854552  0.60734975  0.32616755  1
