# generated using pymatgen
data_YNiSb
_symmetry_space_group_name_H-M   'P 1'
_cell_length_a   4.00662136
_cell_length_b   4.19559288
_cell_length_c   4.16906929
_cell_angle_alpha   119.72076416
_cell_angle_beta   89.89543915
_cell_angle_gamma   90.55513000
_symmetry_Int_Tables_number   1
_chemical_formula_structural   YNiSb
_chemical_formula_sum   'Y1 Ni1 Sb1'
_cell_volume   60.86022959
_cell_formula_units_Z   1
loop_
 _symmetry_equiv_pos_site_id
 _symmetry_equiv_pos_as_xyz
  1  'x, y, z'
loop_
 _atom_site_type_symbol
 _atom_site_label
 _atom_site_symmetry_multiplicity
 _atom_site_fract_x
 _atom_site_fract_y
 _atom_site_fract_z
 _atom_site_occupancy
  Y  Y0  1  0.09379069  0.72782183  0.24805860  1
  Ni  Ni1  1  0.59315634  0.39457676  0.57678610  1
  Sb  Sb2  1  0.59419596  0.05948491  0.91151094  1
