# generated using pymatgen
data_YSb(PbO3)2
_symmetry_space_group_name_H-M   'P 1'
_cell_length_a   5.63884974
_cell_length_b   7.43642187
_cell_length_c   7.72779226
_cell_angle_alpha   90.56192780
_cell_angle_beta   90.02087402
_cell_angle_gamma   89.90203094
_symmetry_Int_Tables_number   1
_chemical_formula_structural   YSb(PbO3)2
_chemical_formula_sum   'Y2 Sb2 Pb4 O12'
_cell_volume   324.03239584
_cell_formula_units_Z   2
loop_
 _symmetry_equiv_pos_site_id
 _symmetry_equiv_pos_as_xyz
  1  'x, y, z'
loop_
 _atom_site_type_symbol
 _atom_site_label
 _atom_site_symmetry_multiplicity
 _atom_site_fract_x
 _atom_site_fract_y
 _atom_site_fract_z
 _atom_site_occupancy
  Y  Y0  1  0.54412979  0.59383696  0.17001772  1
  Y  Y1  1  0.09709749  0.33604392  0.91942436  1
  Sb  Sb2  1  0.09694277  0.83617985  0.91918206  1
  Sb  Sb3  1  0.07325688  0.83772945  0.41969529  1
  Pb  Pb4  1  0.62169224  0.57823545  0.65590113  1
  Pb  Pb5  1  0.61601353  0.08260567  0.65356183  1
  Pb  Pb6  1  0.56691343  0.09309769  0.14799903  1
  Pb  Pb7  1  0.06803580  0.33564401  0.40166435  1
  O  O8  1  0.28815961  0.61339867  0.88265532  1
  O  O9  1  0.82618517  0.64076942  0.36855200  1
  O  O10  1  0.31249407  0.64004833  0.44778860  1
  O  O11  1  0.26885241  0.05580976  0.87809515  1
  O  O12  1  0.78766865  0.37229598  0.07792311  1
  O  O13  1  0.78172833  0.80637848  0.02339606  1
  O  O14  1  0.28445488  0.04173776  0.47352216  1
  O  O15  1  0.32158613  0.35327193  0.15597579  1
  O  O16  1  0.23514830  0.82776189  0.17439951  1
  O  O17  1  0.93570650  0.83175159  0.67775232  1
  O  O18  1  0.87713087  0.32690409  0.68979084  1
  O  O19  1  0.83275414  0.03335215  0.37566212  1
