# generated using pymatgen
data_YSb
_symmetry_space_group_name_H-M   'P 1'
_cell_length_a   4.41554308
_cell_length_b   4.42238045
_cell_length_c   4.40748310
_cell_angle_alpha   59.53250122
_cell_angle_beta   59.63019562
_cell_angle_gamma   59.46347809
_symmetry_Int_Tables_number   1
_chemical_formula_structural   YSb
_chemical_formula_sum   'Y1 Sb1'
_cell_volume   60.22382726
_cell_formula_units_Z   1
loop_
 _symmetry_equiv_pos_site_id
 _symmetry_equiv_pos_as_xyz
  1  'x, y, z'
loop_
 _atom_site_type_symbol
 _atom_site_label
 _atom_site_symmetry_multiplicity
 _atom_site_fract_x
 _atom_site_fract_y
 _atom_site_fract_z
 _atom_site_occupancy
  Y  Y0  1  0.35054836  0.82748777  0.74501842  1
  Sb  Sb1  1  0.85080010  0.32773325  0.24526690  1
