# generated using pymatgen
data_YScO2
_symmetry_space_group_name_H-M   'P 1'
_cell_length_a   3.30217218
_cell_length_b   3.30467105
_cell_length_c   5.81847143
_cell_angle_alpha   73.47847748
_cell_angle_beta   73.52399445
_cell_angle_gamma   59.92876053
_symmetry_Int_Tables_number   1
_chemical_formula_structural   YScO2
_chemical_formula_sum   'Y1 Sc1 O2'
_cell_volume   51.91214135
_cell_formula_units_Z   1
loop_
 _symmetry_equiv_pos_site_id
 _symmetry_equiv_pos_as_xyz
  1  'x, y, z'
loop_
 _atom_site_type_symbol
 _atom_site_label
 _atom_site_symmetry_multiplicity
 _atom_site_fract_x
 _atom_site_fract_y
 _atom_site_fract_z
 _atom_site_occupancy
  Y  Y0  1  0.23756893  0.14392446  0.29766253  1
  Sc  Sc1  1  0.73668087  0.64421099  0.79826528  1
  O  O2  1  0.47813952  0.38288569  0.57539868  1
  O  O3  1  0.99634480  0.90218288  0.02175409  1
