# generated using pymatgen
data_YSeF
_symmetry_space_group_name_H-M   'P 1'
_cell_length_a   3.96920514
_cell_length_b   6.10667562
_cell_length_c   11.37137222
_cell_angle_alpha   90.20135498
_cell_angle_beta   90.10189819
_cell_angle_gamma   90.06651306
_symmetry_Int_Tables_number   1
_chemical_formula_structural   YSeF
_chemical_formula_sum   'Y4 Se4 F4'
_cell_volume   275.62436617
_cell_formula_units_Z   4
loop_
 _symmetry_equiv_pos_site_id
 _symmetry_equiv_pos_as_xyz
  1  'x, y, z'
loop_
 _atom_site_type_symbol
 _atom_site_label
 _atom_site_symmetry_multiplicity
 _atom_site_fract_x
 _atom_site_fract_y
 _atom_site_fract_z
 _atom_site_occupancy
  Y  Y0  1  0.40944156  0.03225487  0.80159938  1
  Y  Y1  1  0.40991971  0.69944936  0.08107407  1
  Y  Y2  1  0.90982908  0.21680260  0.24603687  1
  Y  Y3  1  0.41010800  0.69622183  0.47154641  1
  Se  Se4  1  0.40959787  0.50493866  0.84824061  1
  Se  Se5  1  0.90960455  0.71241033  0.26942378  1
  Se  Se6  1  0.90993202  0.99766314  0.99806732  1
  Se  Se7  1  0.40997544  0.20215677  0.42885414  1
  F  F8  1  0.40932259  0.85258722  0.64247566  1
  F  F9  1  0.90975249  0.12472765  0.71513706  1
  F  F10  1  0.40997207  0.34774306  0.14500485  1
  F  F11  1  0.90960264  0.61397719  0.56342381  1
