# generated using pymatgen
data_YTh(B2Ru3)2
_symmetry_space_group_name_H-M   'P 1'
_cell_length_a   5.41854477
_cell_length_b   5.40689087
_cell_length_c   6.52133608
_cell_angle_alpha   89.86760712
_cell_angle_beta   89.81636810
_cell_angle_gamma   119.70929718
_symmetry_Int_Tables_number   1
_chemical_formula_structural   YTh(B2Ru3)2
_chemical_formula_sum   'Y1 Th1 B4 Ru6'
_cell_volume   165.94173385
_cell_formula_units_Z   1
loop_
 _symmetry_equiv_pos_site_id
 _symmetry_equiv_pos_as_xyz
  1  'x, y, z'
loop_
 _atom_site_type_symbol
 _atom_site_label
 _atom_site_symmetry_multiplicity
 _atom_site_fract_x
 _atom_site_fract_y
 _atom_site_fract_z
 _atom_site_occupancy
  Y  Y0  1  0.05529689  0.18150067  0.37716353  1
  Th  Th1  1  0.05510273  0.18121822  0.87681592  1
  B  B2  1  0.72205365  0.51430964  0.37742364  1
  B  B3  1  0.38668829  0.84829718  0.87705332  1
  B  B4  1  0.38679874  0.84863895  0.37746376  1
  B  B5  1  0.72176868  0.51403886  0.87721771  1
  Ru  Ru6  1  0.55504811  0.18124299  0.12780443  1
  Ru  Ru7  1  0.05487305  0.68118018  0.12762757  1
  Ru  Ru8  1  0.55512708  0.68123329  0.12719749  1
  Ru  Ru9  1  0.05499608  0.68108827  0.62736118  1
  Ru  Ru10  1  0.55507177  0.68079352  0.62738234  1
  Ru  Ru11  1  0.55531228  0.18116710  0.62747788  1
