# generated using pymatgen
data_YTl3
_symmetry_space_group_name_H-M   'P 1'
_cell_length_a   4.77606201
_cell_length_b   4.74726677
_cell_length_c   4.74170923
_cell_angle_alpha   89.93917084
_cell_angle_beta   90.10454559
_cell_angle_gamma   89.98805237
_symmetry_Int_Tables_number   1
_chemical_formula_structural   YTl3
_chemical_formula_sum   'Y1 Tl3'
_cell_volume   107.50967175
_cell_formula_units_Z   1
loop_
 _symmetry_equiv_pos_site_id
 _symmetry_equiv_pos_as_xyz
  1  'x, y, z'
loop_
 _atom_site_type_symbol
 _atom_site_label
 _atom_site_symmetry_multiplicity
 _atom_site_fract_x
 _atom_site_fract_y
 _atom_site_fract_z
 _atom_site_occupancy
  Y  Y0  1  0.18790895  0.36498138  0.67737097  1
  Tl  Tl1  1  0.68760455  0.86544812  0.67719239  1
  Tl  Tl2  1  0.68792182  0.36548138  0.17689934  1
  Tl  Tl3  1  0.18753394  0.86546832  0.17715800  1
