# generated using pymatgen
data_YZrF7
_symmetry_space_group_name_H-M   'P 1'
_cell_length_a   5.79981327
_cell_length_b   6.24926043
_cell_length_c   8.37934589
_cell_angle_alpha   103.77233124
_cell_angle_beta   89.92790222
_cell_angle_gamma   90.05991364
_symmetry_Int_Tables_number   1
_chemical_formula_structural   YZrF7
_chemical_formula_sum   'Y2 Zr2 F14'
_cell_volume   294.97351627
_cell_formula_units_Z   2
loop_
 _symmetry_equiv_pos_site_id
 _symmetry_equiv_pos_as_xyz
  1  'x, y, z'
loop_
 _atom_site_type_symbol
 _atom_site_label
 _atom_site_symmetry_multiplicity
 _atom_site_fract_x
 _atom_site_fract_y
 _atom_site_fract_z
 _atom_site_occupancy
  Y  Y0  1  0.28274286  0.03704930  0.43143833  1
  Y  Y1  1  0.78260738  0.72702545  0.05807045  1
  Zr  Zr2  1  0.79711330  0.56988966  0.52301425  1
  Zr  Zr3  1  0.29788175  0.19487354  0.97191340  1
  F  F4  1  0.01856797  0.31214172  0.51294607  1
  F  F5  1  0.08222856  0.76378858  0.52649289  1
  F  F6  1  0.03745615  0.42346549  0.98413593  1
  F  F7  1  0.47761554  0.83557725  0.22228765  1
  F  F8  1  0.57936293  0.82790172  0.53593528  1
  F  F9  1  0.97821766  0.93104315  0.26766744  1
  F  F10  1  0.54085231  0.33077347  0.50503880  1
  F  F11  1  0.29406887  0.13627295  0.72119707  1
  F  F12  1  0.29972664  0.24383998  0.21977796  1
  F  F13  1  0.79518288  0.62529814  0.76911652  1
  F  F14  1  0.58577728  0.00410574  0.96554512  1
  F  F15  1  0.08118882  0.92977792  0.95653117  1
  F  F16  1  0.79858786  0.52129060  0.27016005  1
  F  F17  1  0.51800251  0.45670927  0.97900099  1
