# generated using pymatgen
data_Zn2InAgTe4
_symmetry_space_group_name_H-M   'P 1'
_cell_length_a   6.41821051
_cell_length_b   6.42586279
_cell_length_c   7.76292372
_cell_angle_alpha   114.48763275
_cell_angle_beta   114.35760498
_cell_angle_gamma   90.11926270
_symmetry_Int_Tables_number   1
_chemical_formula_structural   Zn2InAgTe4
_chemical_formula_sum   'Zn2 In1 Ag1 Te4'
_cell_volume   259.58412855
_cell_formula_units_Z   1
loop_
 _symmetry_equiv_pos_site_id
 _symmetry_equiv_pos_as_xyz
  1  'x, y, z'
loop_
 _atom_site_type_symbol
 _atom_site_label
 _atom_site_symmetry_multiplicity
 _atom_site_fract_x
 _atom_site_fract_y
 _atom_site_fract_z
 _atom_site_occupancy
  Zn  Zn0  1  0.52287453  0.18516144  0.27074307  1
  Zn  Zn1  1  0.02227762  0.68502665  0.27080834  1
  In  In2  1  0.27287641  0.43616098  0.77093184  1
  Ag  Ag3  1  0.77257806  0.93655866  0.77074301  1
  Te  Te4  1  0.15510951  0.81705076  0.03594273  1
  Te  Te5  1  0.38515195  0.55252647  0.50320256  1
  Te  Te6  1  0.88437879  0.05201217  0.50326800  1
  Te  Te7  1  0.65426993  0.31763747  0.03577070  1
