# generated using pymatgen
data_Zn3CdSe4
_symmetry_space_group_name_H-M   'P 1'
_cell_length_a   5.84097910
_cell_length_b   5.85702944
_cell_length_c   7.17958593
_cell_angle_alpha   114.21694183
_cell_angle_beta   114.25511169
_cell_angle_gamma   89.86107635
_symmetry_Int_Tables_number   1
_chemical_formula_structural   Zn3CdSe4
_chemical_formula_sum   'Zn3 Cd1 Se4'
_cell_volume   200.11512023
_cell_formula_units_Z   1
loop_
 _symmetry_equiv_pos_site_id
 _symmetry_equiv_pos_as_xyz
  1  'x, y, z'
loop_
 _atom_site_type_symbol
 _atom_site_label
 _atom_site_symmetry_multiplicity
 _atom_site_fract_x
 _atom_site_fract_y
 _atom_site_fract_z
 _atom_site_occupancy
  Zn  Zn0  1  0.34564221  0.51435906  0.24522252  1
  Zn  Zn1  1  0.59541637  0.26344955  0.74620634  1
  Zn  Zn2  1  0.09525149  0.76271456  0.74526960  1
  Cd  Cd3  1  0.84521794  0.01491870  0.24555132  1
  Se  Se4  1  0.23517942  0.88423705  0.50669336  1
  Se  Se5  1  0.97496963  0.14890227  0.98246562  1
  Se  Se6  1  0.71094233  0.40898737  0.50718647  1
  Se  Se7  1  0.44771492  0.61784858  0.98257101  1
