# generated using pymatgen
data_ZnCu3
_symmetry_space_group_name_H-M   'P 1'
_cell_length_a   4.17360067
_cell_length_b   4.17409992
_cell_length_c   4.15443039
_cell_angle_alpha   59.90895844
_cell_angle_beta   59.92596817
_cell_angle_gamma   59.92169952
_symmetry_Int_Tables_number   1
_chemical_formula_structural   ZnCu3
_chemical_formula_sum   'Zn1 Cu3'
_cell_volume   51.08227879
_cell_formula_units_Z   1
loop_
 _symmetry_equiv_pos_site_id
 _symmetry_equiv_pos_as_xyz
  1  'x, y, z'
loop_
 _atom_site_type_symbol
 _atom_site_label
 _atom_site_symmetry_multiplicity
 _atom_site_fract_x
 _atom_site_fract_y
 _atom_site_fract_z
 _atom_site_occupancy
  Zn  Zn0  1  0.12638095  0.92793113  0.59551054  1
  Cu  Cu1  1  0.62623268  0.42779836  0.09521118  1
  Cu  Cu2  1  0.87592834  0.67877775  0.34560323  1
  Cu  Cu3  1  0.37622958  0.17817990  0.84567261  1
