# generated using pymatgen
data_ZnGeP2
_symmetry_space_group_name_H-M   'P 1'
_cell_length_a   5.55757380
_cell_length_b   5.54509354
_cell_length_c   6.68499184
_cell_angle_alpha   114.24111938
_cell_angle_beta   114.33844757
_cell_angle_gamma   90.09672546
_symmetry_Int_Tables_number   1
_chemical_formula_structural   ZnGeP2
_chemical_formula_sum   'Zn2 Ge2 P4'
_cell_volume   167.49317305
_cell_formula_units_Z   2
loop_
 _symmetry_equiv_pos_site_id
 _symmetry_equiv_pos_as_xyz
  1  'x, y, z'
loop_
 _atom_site_type_symbol
 _atom_site_label
 _atom_site_symmetry_multiplicity
 _atom_site_fract_x
 _atom_site_fract_y
 _atom_site_fract_z
 _atom_site_occupancy
  Zn  Zn0  1  0.89729345  0.78892124  0.60377789  1
  Zn  Zn1  1  0.64714551  0.03875081  0.10414501  1
  Ge  Ge2  1  0.39726180  0.28774938  0.60408103  1
  Ge  Ge3  1  0.14697160  0.53862387  0.10439815  1
  P  P4  1  0.77200997  0.16582729  0.85413897  1
  P  P5  1  0.02160888  0.91293216  0.35386840  1
  P  P6  1  0.27340800  0.66258931  0.85432816  1
  P  P7  1  0.52060878  0.41420448  0.35383201  1
