# generated using pymatgen
data_ZnNi4O5
_symmetry_space_group_name_H-M   'P 1'
_cell_length_a   2.99931407
_cell_length_b   2.95749450
_cell_length_c   10.87945175
_cell_angle_alpha   97.93628693
_cell_angle_beta   97.75209045
_cell_angle_gamma   90.41494751
_symmetry_Int_Tables_number   1
_chemical_formula_structural   ZnNi4O5
_chemical_formula_sum   'Zn1 Ni4 O5'
_cell_volume   94.67495200
_cell_formula_units_Z   1
loop_
 _symmetry_equiv_pos_site_id
 _symmetry_equiv_pos_as_xyz
  1  'x, y, z'
loop_
 _atom_site_type_symbol
 _atom_site_label
 _atom_site_symmetry_multiplicity
 _atom_site_fract_x
 _atom_site_fract_y
 _atom_site_fract_z
 _atom_site_occupancy
  Zn  Zn0  1  0.73420346  0.95198023  0.11665111  1
  Ni  Ni1  1  0.53421474  0.75316066  0.71752024  1
  Ni  Ni2  1  0.93442106  0.15314049  0.51796919  1
  Ni  Ni3  1  0.33377898  0.55196720  0.31931877  1
  Ni  Ni4  1  0.13389407  0.35086823  0.91501075  1
  O  O5  1  0.03476745  0.25265855  0.71712965  1
  O  O6  1  0.63351965  0.85001743  0.91593117  1
  O  O7  1  0.23385286  0.45150086  0.11543539  1
  O  O8  1  0.83330166  0.05170073  0.31812173  1
  O  O9  1  0.43403345  0.65261251  0.51808298  1
