# generated using pymatgen
data_ZnNi4O5
_symmetry_space_group_name_H-M   'P 1'
_cell_length_a   5.18737316
_cell_length_b   5.95917845
_cell_length_c   6.69654465
_cell_angle_alpha   102.99394226
_cell_angle_beta   97.34207153
_cell_angle_gamma   108.19004822
_symmetry_Int_Tables_number   1
_chemical_formula_structural   ZnNi4O5
_chemical_formula_sum   'Zn2 Ni8 O10'
_cell_volume   187.19214730
_cell_formula_units_Z   2
loop_
 _symmetry_equiv_pos_site_id
 _symmetry_equiv_pos_as_xyz
  1  'x, y, z'
loop_
 _atom_site_type_symbol
 _atom_site_label
 _atom_site_symmetry_multiplicity
 _atom_site_fract_x
 _atom_site_fract_y
 _atom_site_fract_z
 _atom_site_occupancy
  Zn  Zn0  1  0.04862015  0.13203490  0.23817588  1
  Zn  Zn1  1  0.24924089  0.03425085  0.64117324  1
  Ni  Ni2  1  0.84946603  0.23225525  0.83934736  1
  Ni  Ni3  1  0.64893454  0.33213192  0.44061500  1
  Ni  Ni4  1  0.84962994  0.73237514  0.84005409  1
  Ni  Ni5  1  0.64956623  0.83194405  0.44027242  1
  Ni  Ni6  1  0.44767612  0.93070322  0.04104304  1
  Ni  Ni7  1  0.44863114  0.43235347  0.03974342  1
  Ni  Ni8  1  0.04891439  0.63157570  0.23949724  1
  Ni  Ni9  1  0.24971561  0.53492290  0.64076334  1
  O  O10  1  0.55963075  0.39246580  0.74487120  1
  O  O11  1  0.15263395  0.08594628  0.93920106  1
  O  O12  1  0.74576354  0.78069800  0.14072526  1
  O  O13  1  0.55832916  0.88577968  0.74379265  1
  O  O14  1  0.35977787  0.98353773  0.34033242  1
  O  O15  1  0.35603628  0.48732078  0.34080312  1
  O  O16  1  0.14998226  0.58609837  0.94090843  1
  O  O17  1  0.94439071  0.18954094  0.54343903  1
  O  O18  1  0.74435014  0.28725094  0.14056753  1
  O  O19  1  0.94332218  0.68088013  0.53559500  1
