# generated using pymatgen
data_ZnNiF6
_symmetry_space_group_name_H-M   'P 1'
_cell_length_a   5.02730942
_cell_length_b   5.02473783
_cell_length_c   5.27600813
_cell_angle_alpha   61.29541397
_cell_angle_beta   61.43075562
_cell_angle_gamma   60.08163834
_symmetry_Int_Tables_number   1
_chemical_formula_structural   ZnNiF6
_chemical_formula_sum   'Zn1 Ni1 F6'
_cell_volume   96.19733350
_cell_formula_units_Z   1
loop_
 _symmetry_equiv_pos_site_id
 _symmetry_equiv_pos_as_xyz
  1  'x, y, z'
loop_
 _atom_site_type_symbol
 _atom_site_label
 _atom_site_symmetry_multiplicity
 _atom_site_fract_x
 _atom_site_fract_y
 _atom_site_fract_z
 _atom_site_occupancy
  Zn  Zn0  1  0.15951921  0.53075767  0.81518114  1
  Ni  Ni1  1  0.65914083  0.03021644  0.31568059  1
  F  F2  1  0.01511263  0.78663218  0.07206406  1
  F  F3  1  0.79233307  0.37753001  0.07285266  1
  F  F4  1  0.89799285  0.89845914  0.55570650  1
  F  F5  1  0.41277403  0.16001517  0.07124965  1
  F  F6  1  0.30507097  0.27308571  0.55543756  1
  F  F7  1  0.52694893  0.67847228  0.55495846  1
