# generated using pymatgen
data_ZnSiAs2
_symmetry_space_group_name_H-M   'P 1'
_cell_length_a   5.74945641
_cell_length_b   5.76509047
_cell_length_c   6.88848877
_cell_angle_alpha   114.82127380
_cell_angle_beta   114.96894836
_cell_angle_gamma   90.11412048
_symmetry_Int_Tables_number   1
_chemical_formula_structural   ZnSiAs2
_chemical_formula_sum   'Zn2 Si2 As4'
_cell_volume   183.35593712
_cell_formula_units_Z   2
loop_
 _symmetry_equiv_pos_site_id
 _symmetry_equiv_pos_as_xyz
  1  'x, y, z'
loop_
 _atom_site_type_symbol
 _atom_site_label
 _atom_site_symmetry_multiplicity
 _atom_site_fract_x
 _atom_site_fract_y
 _atom_site_fract_z
 _atom_site_occupancy
  Zn  Zn0  1  0.35855144  0.91026896  0.41396618  1
  Zn  Zn1  1  0.10920504  0.15967616  0.91433197  1
  Si  Si2  1  0.60875052  0.65956676  0.91457939  1
  Si  Si3  1  0.85890013  0.41033334  0.41458386  1
  As  As4  1  0.49670264  0.03573971  0.16419244  1
  As  As5  1  0.23162988  0.30209988  0.66345865  1
  As  As6  1  0.73152226  0.76915765  0.66400784  1
  As  As7  1  0.96748042  0.53500456  0.16397665  1
