# generated using pymatgen
data_ZnTe
_symmetry_space_group_name_H-M   'P 1'
_cell_length_a   4.42025375
_cell_length_b   4.43607855
_cell_length_c   4.38450480
_cell_angle_alpha   59.45666885
_cell_angle_beta   59.83545303
_cell_angle_gamma   60.02012253
_symmetry_Int_Tables_number   1
_chemical_formula_structural   ZnTe
_chemical_formula_sum   'Zn1 Te1'
_cell_volume   60.47328524
_cell_formula_units_Z   1
loop_
 _symmetry_equiv_pos_site_id
 _symmetry_equiv_pos_as_xyz
  1  'x, y, z'
loop_
 _atom_site_type_symbol
 _atom_site_label
 _atom_site_symmetry_multiplicity
 _atom_site_fract_x
 _atom_site_fract_y
 _atom_site_fract_z
 _atom_site_occupancy
  Zn  Zn0  1  0.21510755  0.37081608  0.58406395  1
  Te  Te1  1  0.96548772  0.11963206  0.33289072  1
