# generated using pymatgen
data_Zr2AlC
_symmetry_space_group_name_H-M   'P 1'
_cell_length_a   3.29861569
_cell_length_b   3.29131532
_cell_length_c   14.10119343
_cell_angle_alpha   89.89907074
_cell_angle_beta   90.10330200
_cell_angle_gamma   121.18156433
_symmetry_Int_Tables_number   1
_chemical_formula_structural   Zr2AlC
_chemical_formula_sum   'Zr4 Al2 C2'
_cell_volume   130.97604474
_cell_formula_units_Z   2
loop_
 _symmetry_equiv_pos_site_id
 _symmetry_equiv_pos_as_xyz
  1  'x, y, z'
loop_
 _atom_site_type_symbol
 _atom_site_label
 _atom_site_symmetry_multiplicity
 _atom_site_fract_x
 _atom_site_fract_y
 _atom_site_fract_z
 _atom_site_occupancy
  Zr  Zr0  1  0.57933527  0.90490383  0.25129333  1
  Zr  Zr1  1  0.91249996  0.57255405  0.77708894  1
  Zr  Zr2  1  0.91281974  0.57182175  0.42779714  1
  Zr  Zr3  1  0.57959670  0.90509963  0.60423106  1
  Al  Al4  1  0.91282696  0.57236326  0.09163203  1
  Al  Al5  1  0.57962137  0.90480310  0.93641019  1
  C  C6  1  0.24636514  0.23829439  0.68722326  1
  C  C7  1  0.24605949  0.23845321  0.34119645  1
