# generated using pymatgen
data_Zr2Cu
_symmetry_space_group_name_H-M   'P 1'
_cell_length_a   4.65919685
_cell_length_b   5.57575178
_cell_length_c   5.62865448
_cell_angle_alpha   69.96566010
_cell_angle_beta   65.14266968
_cell_angle_gamma   65.20349121
_symmetry_Int_Tables_number   1
_chemical_formula_structural   Zr2Cu
_chemical_formula_sum   'Zr4 Cu2'
_cell_volume   117.96524659
_cell_formula_units_Z   2
loop_
 _symmetry_equiv_pos_site_id
 _symmetry_equiv_pos_as_xyz
  1  'x, y, z'
loop_
 _atom_site_type_symbol
 _atom_site_label
 _atom_site_symmetry_multiplicity
 _atom_site_fract_x
 _atom_site_fract_y
 _atom_site_fract_z
 _atom_site_occupancy
  Zr  Zr0  1  0.50488698  0.74564976  0.09043015  1
  Zr  Zr1  1  0.64496142  0.14497088  0.47743964  1
  Zr  Zr2  1  0.89611334  0.52944481  0.55299538  1
  Zr  Zr3  1  0.23768680  0.35054749  0.04579673  1
  Cu  Cu4  1  0.23372224  0.80312842  0.62154973  1
  Cu  Cu5  1  0.91947979  0.09824098  0.93520141  1
