# generated using pymatgen
data_Zr2NiS4
_symmetry_space_group_name_H-M   'P 1'
_cell_length_a   3.57852793
_cell_length_b   6.03626966
_cell_length_c   6.82642460
_cell_angle_alpha   115.46713257
_cell_angle_beta   105.49642944
_cell_angle_gamma   89.66625214
_symmetry_Int_Tables_number   1
_chemical_formula_structural   Zr2NiS4
_chemical_formula_sum   'Zr2 Ni1 S4'
_cell_volume   127.27762378
_cell_formula_units_Z   1
loop_
 _symmetry_equiv_pos_site_id
 _symmetry_equiv_pos_as_xyz
  1  'x, y, z'
loop_
 _atom_site_type_symbol
 _atom_site_label
 _atom_site_symmetry_multiplicity
 _atom_site_fract_x
 _atom_site_fract_y
 _atom_site_fract_z
 _atom_site_occupancy
  Zr  Zr0  1  0.95069396  0.18059340  0.08131385  1
  Zr  Zr1  1  0.45190418  0.68380594  0.08609063  1
  Ni  Ni2  1  0.20228013  0.43056729  0.58293444  1
  S  S3  1  0.82051200  0.71263659  0.81305468  1
  S  S4  1  0.08753117  0.64663839  0.35359973  1
  S  S5  1  0.31643891  0.21872191  0.81471193  1
  S  S6  1  0.58907282  0.15460669  0.35926107  1
