# generated using pymatgen
data_Zr5Ga4
_symmetry_space_group_name_H-M   'P 1'
_cell_length_a   5.86649227
_cell_length_b   8.30645084
_cell_length_c   8.28438282
_cell_angle_alpha   82.93682098
_cell_angle_beta   69.35529327
_cell_angle_gamma   69.26123047
_symmetry_Int_Tables_number   1
_chemical_formula_structural   Zr5Ga4
_chemical_formula_sum   'Zr10 Ga8'
_cell_volume   353.29358609
_cell_formula_units_Z   2
loop_
 _symmetry_equiv_pos_site_id
 _symmetry_equiv_pos_as_xyz
  1  'x, y, z'
loop_
 _atom_site_type_symbol
 _atom_site_label
 _atom_site_symmetry_multiplicity
 _atom_site_fract_x
 _atom_site_fract_y
 _atom_site_fract_z
 _atom_site_occupancy
  Zr  Zr0  1  0.83276421  0.50620729  0.42681867  1
  Zr  Zr1  1  0.30009511  0.11918640  0.34846881  1
  Zr  Zr2  1  0.50080609  0.72845298  0.82616878  1
  Zr  Zr3  1  0.16503096  0.11939467  0.78607798  1
  Zr  Zr4  1  0.05489195  0.50953376  0.95335984  1
  Zr  Zr5  1  0.58478808  0.72859907  0.18565933  1
  Zr  Zr6  1  0.14547198  0.73042369  0.54667771  1
  Zr  Zr7  1  0.62332118  0.30102804  0.00143605  1
  Zr  Zr8  1  0.73549801  0.11764893  0.59963727  1
  Zr  Zr9  1  0.98059696  0.93007165  0.18481129  1
  Ga  Ga10  1  0.40480506  0.37618381  0.41939646  1
  Ga  Ga11  1  0.90449792  0.87374997  0.86857289  1
  Ga  Ga12  1  0.96043444  0.43012452  0.69236165  1
  Ga  Ga13  1  0.23095685  0.58576065  0.18692000  1
  Ga  Ga14  1  0.45948362  0.43224853  0.70646912  1
  Ga  Ga15  1  0.60794151  0.85956490  0.49331173  1
  Ga  Ga16  1  0.45201829  0.03150212  0.99704731  1
  Ga  Ga17  1  0.90346944  0.26533505  0.19726124  1
