# generated using pymatgen
data_ZrNbCo4
_symmetry_space_group_name_H-M   'P 1'
_cell_length_a   4.83054018
_cell_length_b   4.84252262
_cell_length_c   4.85407400
_cell_angle_alpha   60.13632965
_cell_angle_beta   60.13225937
_cell_angle_gamma   59.98556900
_symmetry_Int_Tables_number   1
_chemical_formula_structural   ZrNbCo4
_chemical_formula_sum   'Zr1 Nb1 Co4'
_cell_volume   80.44327694
_cell_formula_units_Z   1
loop_
 _symmetry_equiv_pos_site_id
 _symmetry_equiv_pos_as_xyz
  1  'x, y, z'
loop_
 _atom_site_type_symbol
 _atom_site_label
 _atom_site_symmetry_multiplicity
 _atom_site_fract_x
 _atom_site_fract_y
 _atom_site_fract_z
 _atom_site_occupancy
  Zr  Zr0  1  0.63829100  0.69253063  0.46165955  1
  Nb  Nb1  1  0.38887864  0.44284436  0.21076044  1
  Co  Co2  1  0.51326358  0.06797747  0.83531815  1
  Co  Co3  1  0.01375471  0.06803326  0.33551797  1
  Co  Co4  1  0.01360839  0.06811003  0.83592784  1
  Co  Co5  1  0.01360055  0.56866771  0.83595830  1
