# generated using pymatgen
data_ZrNbFe4
_symmetry_space_group_name_H-M   'P 1'
_cell_length_a   4.95292187
_cell_length_b   4.92853165
_cell_length_c   8.01234150
_cell_angle_alpha   89.99154663
_cell_angle_beta   90.01261902
_cell_angle_gamma   119.99292755
_symmetry_Int_Tables_number   1
_chemical_formula_structural   ZrNbFe4
_chemical_formula_sum   'Zr2 Nb2 Fe8'
_cell_volume   169.39478853
_cell_formula_units_Z   2
loop_
 _symmetry_equiv_pos_site_id
 _symmetry_equiv_pos_as_xyz
  1  'x, y, z'
loop_
 _atom_site_type_symbol
 _atom_site_label
 _atom_site_symmetry_multiplicity
 _atom_site_fract_x
 _atom_site_fract_y
 _atom_site_fract_z
 _atom_site_occupancy
  Zr  Zr0  1  0.30030397  0.73990828  0.17847890  1
  Zr  Zr1  1  0.96716446  0.07311718  0.67892396  1
  Nb  Nb2  1  0.96726531  0.07360993  0.30674461  1
  Nb  Nb3  1  0.30038437  0.74052203  0.80661166  1
  Fe  Fe4  1  0.46598932  0.57401657  0.49489143  1
  Fe  Fe5  1  0.97166431  0.57500660  0.49459982  1
  Fe  Fe6  1  0.80275673  0.74194473  0.99457413  1
  Fe  Fe7  1  0.63412315  0.40676501  0.74437380  1
  Fe  Fe8  1  0.80224699  0.23979068  0.99517906  1
  Fe  Fe9  1  0.46629804  0.06945617  0.49421403  1
  Fe  Fe10  1  0.29986215  0.23927912  0.99465865  1
  Fe  Fe11  1  0.63360363  0.40673563  0.24536546  1
