# generated using pymatgen
data_ZrSb
_symmetry_space_group_name_H-M   'P 1'
_cell_length_a   4.80555010
_cell_length_b   4.80148983
_cell_length_c   8.08533287
_cell_angle_alpha   89.84912872
_cell_angle_beta   89.88258362
_cell_angle_gamma   89.87440491
_symmetry_Int_Tables_number   1
_chemical_formula_structural   ZrSb
_chemical_formula_sum   'Zr4 Sb4'
_cell_volume   186.55786845
_cell_formula_units_Z   4
loop_
 _symmetry_equiv_pos_site_id
 _symmetry_equiv_pos_as_xyz
  1  'x, y, z'
loop_
 _atom_site_type_symbol
 _atom_site_label
 _atom_site_symmetry_multiplicity
 _atom_site_fract_x
 _atom_site_fract_y
 _atom_site_fract_z
 _atom_site_occupancy
  Zr  Zr0  1  0.80042017  0.66499382  0.74695098  1
  Zr  Zr1  1  0.80022383  0.66494930  0.24735002  1
  Zr  Zr2  1  0.30049375  0.16508436  0.74656296  1
  Zr  Zr3  1  0.30064464  0.16502133  0.24679461  1
  Sb  Sb4  1  0.80049533  0.16535725  0.49765486  1
  Sb  Sb5  1  0.30026162  0.66508120  0.49720195  1
  Sb  Sb6  1  0.80026865  0.16518290  0.99737567  1
  Sb  Sb7  1  0.30044895  0.66496593  0.99729288  1
