# generated using pymatgen
data_ZrScOs2
_symmetry_space_group_name_H-M   'P 1'
_cell_length_a   4.60682392
_cell_length_b   4.58950758
_cell_length_c   4.58972073
_cell_angle_alpha   59.72120667
_cell_angle_beta   59.79808807
_cell_angle_gamma   60.18747330
_symmetry_Int_Tables_number   1
_chemical_formula_structural   ZrScOs2
_chemical_formula_sum   'Zr1 Sc1 Os2'
_cell_volume   68.46336500
_cell_formula_units_Z   1
loop_
 _symmetry_equiv_pos_site_id
 _symmetry_equiv_pos_as_xyz
  1  'x, y, z'
loop_
 _atom_site_type_symbol
 _atom_site_label
 _atom_site_symmetry_multiplicity
 _atom_site_fract_x
 _atom_site_fract_y
 _atom_site_fract_z
 _atom_site_occupancy
  Zr  Zr0  1  0.09074387  0.57676208  0.30221543  1
  Sc  Sc1  1  0.59073919  0.07642303  0.80263352  1
  Os  Os2  1  0.84088564  0.32672465  0.05204156  1
  Os  Os3  1  0.34089276  0.82645059  0.55225760  1
