# generated using pymatgen
data_ZrScRu2
_symmetry_space_group_name_H-M   'P 1'
_cell_length_a   4.58977413
_cell_length_b   4.58136606
_cell_length_c   4.58926153
_cell_angle_alpha   59.84841156
_cell_angle_beta   59.86660385
_cell_angle_gamma   59.94290543
_symmetry_Int_Tables_number   1
_chemical_formula_structural   ZrScRu2
_chemical_formula_sum   'Zr1 Sc1 Ru2'
_cell_volume   68.05944861
_cell_formula_units_Z   1
loop_
 _symmetry_equiv_pos_site_id
 _symmetry_equiv_pos_as_xyz
  1  'x, y, z'
loop_
 _atom_site_type_symbol
 _atom_site_label
 _atom_site_symmetry_multiplicity
 _atom_site_fract_x
 _atom_site_fract_y
 _atom_site_fract_z
 _atom_site_occupancy
  Zr  Zr0  1  0.97084218  0.68067485  0.93715852  1
  Sc  Sc1  1  0.47094405  0.18073893  0.43691835  1
  Ru  Ru2  1  0.22069718  0.93078381  0.18746571  1
  Ru  Ru3  1  0.72067004  0.43075675  0.68736166  1
