# generated using pymatgen
data_Ag3SbS3
_symmetry_space_group_name_H-M   'P 1'
_cell_length_a   7.09183868
_cell_length_b   7.09183868
_cell_length_c   7.09183848
_cell_angle_alpha   101.07735726
_cell_angle_beta   101.07735726
_cell_angle_gamma   101.07735639
_symmetry_Int_Tables_number   1
_chemical_formula_structural   Ag3SbS3
_chemical_formula_sum   'Ag6 Sb2 S6'
_cell_volume   333.65483123
_cell_formula_units_Z   2
loop_
 _symmetry_equiv_pos_site_id
 _symmetry_equiv_pos_as_xyz
  1  'x, y, z'
loop_
 _atom_site_type_symbol
 _atom_site_label
 _atom_site_symmetry_multiplicity
 _atom_site_fract_x
 _atom_site_fract_y
 _atom_site_fract_z
 _atom_site_occupancy
  Ag  Ag0  1  0.95689700  0.74233300  0.41313500  1.0
  Ag  Ag1  1  0.74233300  0.41313500  0.95689700  1.0
  Ag  Ag2  1  0.24233300  0.45689700  0.91313500  1.0
  Ag  Ag3  1  0.91313500  0.24233300  0.45689700  1.0
  Ag  Ag4  1  0.41313500  0.95689700  0.74233300  1.0
  Ag  Ag5  1  0.45689700  0.91313500  0.24233300  1.0
  Sb  Sb6  1  0.50113500  0.50113500  0.50113500  1.0
  Sb  Sb7  1  0.00113500  0.00113500  0.00113500  1.0
  S  S8  1  0.75360500  0.76023100  0.09856300  1.0
  S  S9  1  0.09856300  0.75360500  0.76023100  1.0
  S  S10  1  0.25360500  0.59856300  0.26023100  1.0
  S  S11  1  0.26023100  0.25360500  0.59856300  1.0
  S  S12  1  0.76023100  0.09856300  0.75360500  1.0
  S  S13  1  0.59856300  0.26023100  0.25360500  1.0
