# generated using pymatgen
data_AgBrO4
_symmetry_space_group_name_H-M   'P 1'
_cell_length_a   5.18139800
_cell_length_b   5.18139800
_cell_length_c   7.50417182
_cell_angle_alpha   110.19611111
_cell_angle_beta   110.19611112
_cell_angle_gamma   89.99999999
_symmetry_Int_Tables_number   1
_chemical_formula_structural   AgBrO4
_chemical_formula_sum   'Ag2 Br2 O8'
_cell_volume   175.81974104
_cell_formula_units_Z   2
loop_
 _symmetry_equiv_pos_site_id
 _symmetry_equiv_pos_as_xyz
  1  'x, y, z'
loop_
 _atom_site_type_symbol
 _atom_site_label
 _atom_site_symmetry_multiplicity
 _atom_site_fract_x
 _atom_site_fract_y
 _atom_site_fract_z
 _atom_site_occupancy
  Ag  Ag0  1  0.00000000  0.00000000  0.00000000  1.0
  Ag  Ag1  1  0.75000000  0.25000000  0.50000000  1.0
  Br  Br2  1  0.50000000  0.50000000  0.00000000  1.0
  Br  Br3  1  0.25000000  0.75000000  0.50000000  1.0
  O  O4  1  0.66187100  0.55996300  0.85860800  1.0
  O  O5  1  0.55326300  0.95135500  0.64139200  1.0
  O  O6  1  0.30996300  0.44673700  0.35860800  1.0
  O  O7  1  0.70135500  0.33812900  0.14139200  1.0
  O  O8  1  0.44003700  0.80326300  0.14139200  1.0
  O  O9  1  0.04864500  0.91187100  0.35860800  1.0
  O  O10  1  0.08812900  0.69003700  0.64139200  1.0
  O  O11  1  0.19673700  0.29864500  0.85860800  1.0
