# generated using pymatgen
data_Al(FeO2)2
_symmetry_space_group_name_H-M   'P 1'
_cell_length_a   5.86063009
_cell_length_b   5.93412803
_cell_length_c   5.94060713
_cell_angle_alpha   60.67437090
_cell_angle_beta   60.46988058
_cell_angle_gamma   60.43431504
_symmetry_Int_Tables_number   1
_chemical_formula_structural   Al(FeO2)2
_chemical_formula_sum   'Al2 Fe4 O8'
_cell_volume   147.82431896
_cell_formula_units_Z   2
loop_
 _symmetry_equiv_pos_site_id
 _symmetry_equiv_pos_as_xyz
  1  'x, y, z'
loop_
 _atom_site_type_symbol
 _atom_site_label
 _atom_site_symmetry_multiplicity
 _atom_site_fract_x
 _atom_site_fract_y
 _atom_site_fract_z
 _atom_site_occupancy
  Al  Al0  1  0.86725500  0.88234200  0.38286500  1.0
  Al  Al1  1  0.13273600  0.11766000  0.61713600  1.0
  Fe  Fe2  1  0.49999900  0.49995100  0.50001800  1.0
  Fe  Fe3  1  0.50002000  0.49999400  0.00000000  1.0
  Fe  Fe4  1  0.50005900  0.00001400  0.99998800  1.0
  Fe  Fe5  1  0.99995900  0.50001300  0.99999900  1.0
  O  O6  1  0.25640200  0.23725800  0.24917200  1.0
  O  O7  1  0.73844600  0.75688000  0.25684900  1.0
  O  O8  1  0.74320000  0.25140300  0.26168600  1.0
  O  O9  1  0.24735900  0.75688200  0.25713400  1.0
  O  O10  1  0.25680300  0.74860100  0.73830500  1.0
  O  O11  1  0.75263200  0.24312300  0.74286600  1.0
  O  O12  1  0.26154200  0.24312900  0.74315200  1.0
  O  O13  1  0.74358900  0.76275100  0.75082800  1.0
