# generated using pymatgen
data_Al2Ga(PO4)3
_symmetry_space_group_name_H-M   'P 1'
_cell_length_a   4.99692800
_cell_length_b   5.01731799
_cell_length_c   11.13165050
_cell_angle_alpha   89.86763789
_cell_angle_beta   90.00000000
_cell_angle_gamma   119.86565732
_symmetry_Int_Tables_number   1
_chemical_formula_structural   Al2Ga(PO4)3
_chemical_formula_sum   'Al2 Ga1 P3 O12'
_cell_volume   242.01913073
_cell_formula_units_Z   1
loop_
 _symmetry_equiv_pos_site_id
 _symmetry_equiv_pos_as_xyz
  1  'x, y, z'
loop_
 _atom_site_type_symbol
 _atom_site_label
 _atom_site_symmetry_multiplicity
 _atom_site_fract_x
 _atom_site_fract_y
 _atom_site_fract_z
 _atom_site_occupancy
  Al  Al0  1  0.46420100  0.46426700  0.16506400  1.0
  Al  Al1  1  0.99993400  0.53573300  0.83493600  1.0
  Ga  Ga2  1  0.53340200  0.00000000  0.50000000  1.0
  P  P3  1  0.53392100  0.00000000  1.00000000  1.0
  P  P4  1  0.46518300  0.46476700  0.66922200  1.0
  P  P5  1  0.00041600  0.53523300  0.33077800  1.0
  O  O6  1  0.59117800  0.69459000  0.56339800  1.0
  O  O7  1  0.12098400  0.41580800  0.22839100  1.0
  O  O8  1  0.29400700  0.87554000  0.89803400  1.0
  O  O9  1  0.89658800  0.30541000  0.43660200  1.0
  O  O10  1  0.70517600  0.58419200  0.77160900  1.0
  O  O11  1  0.41846700  0.12446000  0.10196600  1.0
  O  O12  1  0.58412300  0.74186900  0.05007300  1.0
  O  O13  1  0.15679300  0.42192900  0.71749200  1.0
  O  O14  1  0.25548000  0.85248400  0.37510400  1.0
  O  O15  1  0.84225400  0.25813100  0.94992700  1.0
  O  O16  1  0.73486400  0.57807100  0.28250800  1.0
  O  O17  1  0.40299600  0.14751600  0.62489600  1.0
