# generated using pymatgen
data_Al5C3N
_symmetry_space_group_name_H-M   'P 1'
_cell_length_a   3.30871000
_cell_length_b   3.30871007
_cell_length_c   21.82761500
_cell_angle_alpha   90.00000000
_cell_angle_beta   90.00000000
_cell_angle_gamma   119.99999925
_symmetry_Int_Tables_number   1
_chemical_formula_structural   Al5C3N
_chemical_formula_sum   'Al10 C6 N2'
_cell_volume   206.94471349
_cell_formula_units_Z   2
loop_
 _symmetry_equiv_pos_site_id
 _symmetry_equiv_pos_as_xyz
  1  'x, y, z'
loop_
 _atom_site_type_symbol
 _atom_site_label
 _atom_site_symmetry_multiplicity
 _atom_site_fract_x
 _atom_site_fract_y
 _atom_site_fract_z
 _atom_site_occupancy
  Al  Al0  1  0.00000000  0.00000000  0.84095700  1.0
  Al  Al1  1  0.33333333  0.66666667  0.45529600  1.0
  Al  Al2  1  0.33333333  0.66666667  0.23763000  1.0
  Al  Al3  1  0.66666667  0.33333333  0.54719100  1.0
  Al  Al4  1  0.66666667  0.33333333  0.95529600  1.0
  Al  Al5  1  0.00000000  0.00000000  0.65248200  1.0
  Al  Al6  1  0.00000000  0.00000000  0.34095700  1.0
  Al  Al7  1  0.33333333  0.66666667  0.04719100  1.0
  Al  Al8  1  0.66666667  0.33333333  0.73763000  1.0
  Al  Al9  1  0.00000000  0.00000000  0.15248200  1.0
  C  C10  1  0.00000000  0.00000000  0.25114400  1.0
  C  C11  1  0.33333333  0.66666667  0.13423100  1.0
  C  C12  1  0.00000000  0.00000000  0.75114400  1.0
  C  C13  1  0.00000000  0.00000000  0.99773000  1.0
  C  C14  1  0.66666667  0.33333333  0.63423100  1.0
  C  C15  1  0.00000000  0.00000000  0.49773000  1.0
  N  N16  1  0.33333333  0.66666667  0.37034000  1.0
  N  N17  1  0.66666667  0.33333333  0.87034000  1.0
