# generated using pymatgen
data_AlCuSnS4
_symmetry_space_group_name_H-M   'P 1'
_cell_length_a   7.21362400
_cell_length_b   7.26668078
_cell_length_c   7.26668078
_cell_angle_alpha   60.58565949
_cell_angle_beta   60.24123514
_cell_angle_gamma   60.24123515
_symmetry_Int_Tables_number   1
_chemical_formula_structural   AlCuSnS4
_chemical_formula_sum   'Al2 Cu2 Sn2 S8'
_cell_volume   271.50893152
_cell_formula_units_Z   2
loop_
 _symmetry_equiv_pos_site_id
 _symmetry_equiv_pos_as_xyz
  1  'x, y, z'
loop_
 _atom_site_type_symbol
 _atom_site_label
 _atom_site_symmetry_multiplicity
 _atom_site_fract_x
 _atom_site_fract_y
 _atom_site_fract_z
 _atom_site_occupancy
  Al  Al0  1  0.50000000  0.50000000  0.00000000  1.0
  Al  Al1  1  0.00000000  0.50000000  0.00000000  1.0
  Cu  Cu2  1  0.62981400  0.12018600  0.62018600  1.0
  Cu  Cu3  1  0.37018600  0.87981400  0.37981400  1.0
  Sn  Sn4  1  0.00000000  0.00000000  0.00000000  1.0
  Sn  Sn5  1  1.00000000  0.50000000  0.50000000  1.0
  S  S6  1  0.23886100  0.26173000  0.76173000  1.0
  S  S7  1  0.73767900  0.26173000  0.76173000  1.0
  S  S8  1  0.74940700  0.72900300  0.77218300  1.0
  S  S9  1  0.74940700  0.27218300  0.22900300  1.0
  S  S10  1  0.76113900  0.73827000  0.23827000  1.0
  S  S11  1  0.26232100  0.73827000  0.23827000  1.0
  S  S12  1  0.25059300  0.27099700  0.22781700  1.0
  S  S13  1  0.25059300  0.72781700  0.77099700  1.0
