# generated using pymatgen
data_AlCu(PSe3)2
_symmetry_space_group_name_H-M   'P 1'
_cell_length_a   6.28587052
_cell_length_b   6.28587052
_cell_length_c   7.81599098
_cell_angle_alpha   66.28946898
_cell_angle_beta   66.28946898
_cell_angle_gamma   59.99999445
_symmetry_Int_Tables_number   1
_chemical_formula_structural   AlCu(PSe3)2
_chemical_formula_sum   'Al1 Cu1 P2 Se6'
_cell_volume   236.87285760
_cell_formula_units_Z   1
loop_
 _symmetry_equiv_pos_site_id
 _symmetry_equiv_pos_as_xyz
  1  'x, y, z'
loop_
 _atom_site_type_symbol
 _atom_site_label
 _atom_site_symmetry_multiplicity
 _atom_site_fract_x
 _atom_site_fract_y
 _atom_site_fract_z
 _atom_site_occupancy
  Al  Al0  1  0.16724100  0.16724100  0.49827700  1.0
  Cu  Cu1  1  0.83279500  0.83279500  0.50161500  1.0
  P  P2  1  0.55330000  0.55330000  0.34010000  1.0
  P  P3  1  0.44609900  0.44609900  0.66170300  1.0
  Se  Se4  1  0.24475100  0.93078200  0.25966200  1.0
  Se  Se5  1  0.93078200  0.56480500  0.25966200  1.0
  Se  Se6  1  0.56480500  0.24475100  0.25966200  1.0
  Se  Se7  1  0.77270900  0.08480600  0.73977300  1.0
  Se  Se8  1  0.08480600  0.40271200  0.73977300  1.0
  Se  Se9  1  0.40271200  0.77270900  0.73977300  1.0
