# generated using pymatgen
data_AlF3
_symmetry_space_group_name_H-M   'P 1'
_cell_length_a   4.98134042
_cell_length_b   5.07023817
_cell_length_c   5.07023855
_cell_angle_alpha   60.46420995
_cell_angle_beta   60.96335657
_cell_angle_gamma   60.96335845
_symmetry_Int_Tables_number   1
_chemical_formula_structural   AlF3
_chemical_formula_sum   'Al2 F6'
_cell_volume   92.17311131
_cell_formula_units_Z   2
loop_
 _symmetry_equiv_pos_site_id
 _symmetry_equiv_pos_as_xyz
  1  'x, y, z'
loop_
 _atom_site_type_symbol
 _atom_site_label
 _atom_site_symmetry_multiplicity
 _atom_site_fract_x
 _atom_site_fract_y
 _atom_site_fract_z
 _atom_site_occupancy
  Al  Al0  1  0.74995400  0.74992200  0.75018300  1.0
  Al  Al1  1  0.25004600  0.24981700  0.25007800  1.0
  F  F2  1  0.00000000  0.48728800  0.51271200  1.0
  F  F3  1  0.55373200  0.45372700  0.06130700  1.0
  F  F4  1  0.44627000  0.93869200  0.54627200  1.0
  F  F5  1  0.50000000  0.01422200  0.98577800  1.0
  F  F6  1  0.94756800  0.04545500  0.43912400  1.0
  F  F7  1  0.05243200  0.56087600  0.95454500  1.0
