# generated using pymatgen
data_AlHO2
_symmetry_space_group_name_H-M   'P 1'
_cell_length_a   2.89771800
_cell_length_b   3.73653100
_cell_length_c   6.29390671
_cell_angle_alpha   90.00000000
_cell_angle_beta   103.30886254
_cell_angle_gamma   90.00000000
_symmetry_Int_Tables_number   1
_chemical_formula_structural   AlHO2
_chemical_formula_sum   'Al2 H2 O4'
_cell_volume   66.31653040
_cell_formula_units_Z   2
loop_
 _symmetry_equiv_pos_site_id
 _symmetry_equiv_pos_as_xyz
  1  'x, y, z'
loop_
 _atom_site_type_symbol
 _atom_site_label
 _atom_site_symmetry_multiplicity
 _atom_site_fract_x
 _atom_site_fract_y
 _atom_site_fract_z
 _atom_site_occupancy
  Al  Al0  1  0.31865700  0.74991200  0.63731400  1.0
  Al  Al1  1  0.68134300  0.24991200  0.36268600  1.0
  H  H2  1  0.97767400  0.56354800  0.95534800  1.0
  H  H3  1  0.02232600  0.06354800  0.04465200  1.0
  O  O4  1  0.70979800  0.74930200  0.41959600  1.0
  O  O5  1  0.29020200  0.24930200  0.58040400  1.0
  O  O6  1  0.92053300  0.75558400  0.84106600  1.0
  O  O7  1  0.07946700  0.25558400  0.15893400  1.0
