# generated using pymatgen
data_AlIn2N3
_symmetry_space_group_name_H-M   'P 1'
_cell_length_a   5.50003800
_cell_length_b   5.92574594
_cell_length_c   5.93982953
_cell_angle_alpha   119.92160376
_cell_angle_beta   90.00000000
_cell_angle_gamma   90.00000000
_symmetry_Int_Tables_number   1
_chemical_formula_structural   AlIn2N3
_chemical_formula_sum   'Al2 In4 N6'
_cell_volume   167.78605764
_cell_formula_units_Z   2
loop_
 _symmetry_equiv_pos_site_id
 _symmetry_equiv_pos_as_xyz
  1  'x, y, z'
loop_
 _atom_site_type_symbol
 _atom_site_label
 _atom_site_symmetry_multiplicity
 _atom_site_fract_x
 _atom_site_fract_y
 _atom_site_fract_z
 _atom_site_occupancy
  Al  Al0  1  0.48921800  0.34124300  0.00000000  1.0
  Al  Al1  1  0.98921800  0.65875700  0.00000000  1.0
  In  In2  1  0.48712100  0.98829500  0.32370800  1.0
  In  In3  1  0.48712100  0.66458800  0.67629200  1.0
  In  In4  1  0.98712100  0.01170500  0.67629200  1.0
  In  In5  1  0.98712100  0.33541200  0.32370800  1.0
  N  N6  1  0.88563700  0.96885500  0.30181400  1.0
  N  N7  1  0.88563700  0.66704100  0.69818600  1.0
  N  N8  1  0.38563700  0.03114500  0.69818600  1.0
  N  N9  1  0.38563700  0.33295900  0.30181400  1.0
  N  N10  1  0.83726600  0.36864300  0.00000000  1.0
  N  N11  1  0.33726600  0.63135700  0.00000000  1.0
