# generated using pymatgen
data_AlInGaSb3
_symmetry_space_group_name_H-M   'P 1'
_cell_length_a   4.49897200
_cell_length_b   4.51254800
_cell_length_c   10.01622422
_cell_angle_alpha   103.01828105
_cell_angle_beta   102.97843058
_cell_angle_gamma   90.00000001
_symmetry_Int_Tables_number   1
_chemical_formula_structural   AlInGaSb3
_chemical_formula_sum   'Al1 In1 Ga1 Sb3'
_cell_volume   192.78590625
_cell_formula_units_Z   1
loop_
 _symmetry_equiv_pos_site_id
 _symmetry_equiv_pos_as_xyz
  1  'x, y, z'
loop_
 _atom_site_type_symbol
 _atom_site_label
 _atom_site_symmetry_multiplicity
 _atom_site_fract_x
 _atom_site_fract_y
 _atom_site_fract_z
 _atom_site_occupancy
  Al  Al0  1  0.66362700  0.66362700  0.32725400  1.0
  In  In1  1  0.33333333  0.33333333  0.66666667  1.0
  Ga  Ga2  1  0.00301300  0.00301300  0.00602600  1.0
  Sb  Sb3  1  0.74264800  0.24264800  0.48529600  1.0
  Sb  Sb4  1  0.42383100  0.92383100  0.84766200  1.0
  Sb  Sb5  1  0.08348600  0.58348600  0.16697200  1.0
