# generated using pymatgen
data_AlInSb2
_symmetry_space_group_name_H-M   'P 1'
_cell_length_a   4.55247664
_cell_length_b   4.55247664
_cell_length_c   7.85567383
_cell_angle_alpha   73.15656615
_cell_angle_beta   73.15656615
_cell_angle_gamma   59.99999064
_symmetry_Int_Tables_number   1
_chemical_formula_structural   AlInSb2
_chemical_formula_sum   'Al1 In1 Sb2'
_cell_volume   132.87069925
_cell_formula_units_Z   1
loop_
 _symmetry_equiv_pos_site_id
 _symmetry_equiv_pos_as_xyz
  1  'x, y, z'
loop_
 _atom_site_type_symbol
 _atom_site_label
 _atom_site_symmetry_multiplicity
 _atom_site_fract_x
 _atom_site_fract_y
 _atom_site_fract_z
 _atom_site_occupancy
  Al  Al0  1  0.99970600  0.99970600  0.00088200  1.0
  In  In1  1  0.50032600  0.50032600  0.49902200  1.0
  Sb  Sb2  1  0.12056500  0.12056500  0.63830500  1.0
  Sb  Sb3  1  0.62940300  0.62940300  0.11179100  1.0
