# generated using pymatgen
data_AlNiF5
_symmetry_space_group_name_H-M   'P 1'
_cell_length_a   3.52730400
_cell_length_b   5.15981514
_cell_length_c   5.15981514
_cell_angle_alpha   74.09949434
_cell_angle_beta   70.01310098
_cell_angle_gamma   70.01310099
_symmetry_Int_Tables_number   1
_chemical_formula_structural   AlNiF5
_chemical_formula_sum   'Al1 Ni1 F5'
_cell_volume   81.61494673
_cell_formula_units_Z   1
loop_
 _symmetry_equiv_pos_site_id
 _symmetry_equiv_pos_as_xyz
  1  'x, y, z'
loop_
 _atom_site_type_symbol
 _atom_site_label
 _atom_site_symmetry_multiplicity
 _atom_site_fract_x
 _atom_site_fract_y
 _atom_site_fract_z
 _atom_site_occupancy
  Al  Al0  1  0.50000000  0.50000000  0.50000000  1.0
  Ni  Ni1  1  0.00000000  0.00000000  0.00000000  1.0
  F  F2  1  0.50000000  0.79772600  0.20227400  1.0
  F  F3  1  0.50000000  0.20227400  0.79772600  1.0
  F  F4  1  0.25910400  0.74089600  0.74089600  1.0
  F  F5  1  0.74089600  0.25910400  0.25910400  1.0
  F  F6  1  0.00000000  0.50000000  0.50000000  1.0
