# generated using pymatgen
data_AlV2O4
_symmetry_space_group_name_H-M   'P 1'
_cell_length_a   5.88146275
_cell_length_b   5.90267748
_cell_length_c   5.90758603
_cell_angle_alpha   119.38018747
_cell_angle_beta   119.41704532
_cell_angle_gamma   89.97948820
_symmetry_Int_Tables_number   1
_chemical_formula_structural   AlV2O4
_chemical_formula_sum   'Al2 V4 O8'
_cell_volume   147.64208952
_cell_formula_units_Z   2
loop_
 _symmetry_equiv_pos_site_id
 _symmetry_equiv_pos_as_xyz
  1  'x, y, z'
loop_
 _atom_site_type_symbol
 _atom_site_label
 _atom_site_symmetry_multiplicity
 _atom_site_fract_x
 _atom_site_fract_y
 _atom_site_fract_z
 _atom_site_occupancy
  Al  Al0  1  0.37777600  0.62103300  0.25001800  1.0
  Al  Al1  1  0.62220500  0.37895600  0.74994700  1.0
  V  V2  1  0.99999600  0.00000500  0.00000300  1.0
  V  V3  1  0.50000900  0.00000600  0.00000400  1.0
  V  V4  1  0.99999900  0.50003000  0.49999700  1.0
  V  V5  1  1.00000000  0.99997300  0.49999900  1.0
  O  O6  1  0.25550600  0.74746100  0.00115000  1.0
  O  O7  1  0.25258200  0.25809500  0.50246800  1.0
  O  O8  1  0.74307900  0.74654000  0.99645900  1.0
  O  O9  1  0.74802300  0.25726800  0.50123200  1.0
  O  O10  1  0.74739300  0.74189600  0.49754600  1.0
  O  O11  1  0.74449400  0.25255600  0.99884800  1.0
  O  O12  1  0.25692500  0.25345600  0.00354700  1.0
  O  O13  1  0.25201300  0.74272400  0.49878000  1.0
