# generated using pymatgen
data_As(IF3)2
_symmetry_space_group_name_H-M   'P 1'
_cell_length_a   6.03323327
_cell_length_b   8.16258676
_cell_length_c   8.16258676
_cell_angle_alpha   78.44313965
_cell_angle_beta   81.28899152
_cell_angle_gamma   81.28899152
_symmetry_Int_Tables_number   1
_chemical_formula_structural   As(IF3)2
_chemical_formula_sum   'As2 I4 F12'
_cell_volume   386.23252987
_cell_formula_units_Z   2
loop_
 _symmetry_equiv_pos_site_id
 _symmetry_equiv_pos_as_xyz
  1  'x, y, z'
loop_
 _atom_site_type_symbol
 _atom_site_label
 _atom_site_symmetry_multiplicity
 _atom_site_fract_x
 _atom_site_fract_y
 _atom_site_fract_z
 _atom_site_occupancy
  As  As0  1  0.56757400  0.69367200  0.69367200  1.0
  As  As1  1  0.43242600  0.30632800  0.30632800  1.0
  I  I2  1  0.10643700  0.23921700  0.92270800  1.0
  I  I3  1  0.10643700  0.92270800  0.23921700  1.0
  I  I4  1  0.89356300  0.07729200  0.76078300  1.0
  I  I5  1  0.89356300  0.76078300  0.07729200  1.0
  F  F6  1  0.61648600  0.45617800  0.21099600  1.0
  F  F7  1  0.75888000  0.60489900  0.84780300  1.0
  F  F8  1  0.71759900  0.56012400  0.56012400  1.0
  F  F9  1  0.61648600  0.21099600  0.45617800  1.0
  F  F10  1  0.24112000  0.15219700  0.39510100  1.0
  F  F11  1  0.24112000  0.39510100  0.15219700  1.0
  F  F12  1  0.56702500  0.16764300  0.16764300  1.0
  F  F13  1  0.38351400  0.54382200  0.78900400  1.0
  F  F14  1  0.38351400  0.78900400  0.54382200  1.0
  F  F15  1  0.43297500  0.83235700  0.83235700  1.0
  F  F16  1  0.28240100  0.43987600  0.43987600  1.0
  F  F17  1  0.75888000  0.84780300  0.60489900  1.0
