# generated using pymatgen
data_As2SeS2
_symmetry_space_group_name_H-M   'P 1'
_cell_length_a   4.30802400
_cell_length_b   10.44930400
_cell_length_c   11.90981986
_cell_angle_alpha   90.00000000
_cell_angle_beta   96.60011256
_cell_angle_gamma   90.00000000
_symmetry_Int_Tables_number   1
_chemical_formula_structural   As2SeS2
_chemical_formula_sum   'As8 Se4 S8'
_cell_volume   532.57750826
_cell_formula_units_Z   4
loop_
 _symmetry_equiv_pos_site_id
 _symmetry_equiv_pos_as_xyz
  1  'x, y, z'
loop_
 _atom_site_type_symbol
 _atom_site_label
 _atom_site_symmetry_multiplicity
 _atom_site_fract_x
 _atom_site_fract_y
 _atom_site_fract_z
 _atom_site_occupancy
  As  As0  1  0.42156000  0.69421500  0.75377300  1.0
  As  As1  1  0.92156000  0.80578500  0.25377300  1.0
  As  As2  1  0.57844000  0.30578500  0.24622700  1.0
  As  As3  1  0.07844000  0.19421500  0.74622700  1.0
  As  As4  1  0.24574200  0.81836600  0.99690700  1.0
  As  As5  1  0.74574200  0.68163400  0.49690700  1.0
  As  As6  1  0.75425800  0.18163400  0.00309300  1.0
  As  As7  1  0.25425800  0.31836600  0.50309300  1.0
  Se  Se8  1  0.54932200  0.90228800  0.84676700  1.0
  Se  Se9  1  0.04932200  0.59771200  0.34676700  1.0
  Se  Se10  1  0.45067800  0.09771200  0.15323300  1.0
  Se  Se11  1  0.95067800  0.40228800  0.65323300  1.0
  S  S12  1  0.09182100  0.80325200  0.61815600  1.0
  S  S13  1  0.59182100  0.69674800  0.11815600  1.0
  S  S14  1  0.90817900  0.19674800  0.38184400  1.0
  S  S15  1  0.40817900  0.30325200  0.88184400  1.0
  S  S16  1  0.12625900  0.63535800  0.89606200  1.0
  S  S17  1  0.62625900  0.86464200  0.39606200  1.0
  S  S18  1  0.87374100  0.36464200  0.10393800  1.0
  S  S19  1  0.37374100  0.13535800  0.60393800  1.0
