# generated using pymatgen
data_AsRhO4
_symmetry_space_group_name_H-M   'P 1'
_cell_length_a   5.47604162
_cell_length_b   5.47604162
_cell_length_c   5.47604162
_cell_angle_alpha   107.80027906
_cell_angle_beta   107.80027907
_cell_angle_gamma   112.86742249
_symmetry_Int_Tables_number   1
_chemical_formula_structural   AsRhO4
_chemical_formula_sum   'As2 Rh2 O8'
_cell_volume   126.07387348
_cell_formula_units_Z   2
loop_
 _symmetry_equiv_pos_site_id
 _symmetry_equiv_pos_as_xyz
  1  'x, y, z'
loop_
 _atom_site_type_symbol
 _atom_site_label
 _atom_site_symmetry_multiplicity
 _atom_site_fract_x
 _atom_site_fract_y
 _atom_site_fract_z
 _atom_site_occupancy
  As  As0  1  0.24565300  0.74565300  0.50000000  1.0
  As  As1  1  0.49565300  0.49565300  0.00000000  1.0
  Rh  Rh2  1  0.75574400  0.25574400  0.50000000  1.0
  Rh  Rh3  1  0.00574400  0.00574400  0.00000000  1.0
  O  O4  1  0.54297600  0.73446800  0.80850800  1.0
  O  O5  1  0.07603300  0.26483300  0.81120000  1.0
  O  O6  1  0.48446800  0.79297600  0.30850800  1.0
  O  O7  1  0.01483300  0.32603300  0.31119900  1.0
  O  O8  1  0.01483300  0.70363300  0.68880000  1.0
  O  O9  1  0.48446800  0.17596000  0.69149200  1.0
  O  O10  1  0.45363400  0.26483400  0.18880100  1.0
  O  O11  1  0.92596000  0.73446800  0.19149200  1.0
