# generated using pymatgen
data_B5Ir3W2
_symmetry_space_group_name_H-M   'P 1'
_cell_length_a   2.89775400
_cell_length_b   4.72452000
_cell_length_c   8.37997612
_cell_angle_alpha   106.37324158
_cell_angle_beta   99.95632930
_cell_angle_gamma   89.99999997
_symmetry_Int_Tables_number   1
_chemical_formula_structural   B5Ir3W2
_chemical_formula_sum   'B5 Ir3 W2'
_cell_volume   108.27138903
_cell_formula_units_Z   1
loop_
 _symmetry_equiv_pos_site_id
 _symmetry_equiv_pos_as_xyz
  1  'x, y, z'
loop_
 _atom_site_type_symbol
 _atom_site_label
 _atom_site_symmetry_multiplicity
 _atom_site_fract_x
 _atom_site_fract_y
 _atom_site_fract_z
 _atom_site_occupancy
  B  B0  1  0.77910800  0.47956300  0.55821600  1.0
  B  B1  1  0.22089300  0.92134800  0.44178500  1.0
  B  B2  1  0.77850000  0.07811900  0.55700000  1.0
  B  B3  1  0.22150000  0.52111900  0.44300000  1.0
  B  B4  1  0.50000000  0.34606600  0.00000000  1.0
  Ir  Ir5  1  1.00000000  0.00156000  1.00000000  1.0
  Ir  Ir6  1  0.09498000  0.59526800  0.18996000  1.0
  Ir  Ir7  1  0.90502100  0.40530900  0.81004100  1.0
  W  W8  1  0.34839200  0.84871600  0.69678300  1.0
  W  W9  1  0.65160900  0.15193300  0.30321800  1.0
