# generated using pymatgen
data_Ba(AsPd)2
_symmetry_space_group_name_H-M   'P 1'
_cell_length_a   4.54107400
_cell_length_b   4.54107400
_cell_length_c   11.00802737
_cell_angle_alpha   101.90338137
_cell_angle_beta   101.90338136
_cell_angle_gamma   90.00000001
_symmetry_Int_Tables_number   1
_chemical_formula_structural   Ba(AsPd)2
_chemical_formula_sum   'Ba2 As4 Pd4'
_cell_volume   217.12824802
_cell_formula_units_Z   2
loop_
 _symmetry_equiv_pos_site_id
 _symmetry_equiv_pos_as_xyz
  1  'x, y, z'
loop_
 _atom_site_type_symbol
 _atom_site_label
 _atom_site_symmetry_multiplicity
 _atom_site_fract_x
 _atom_site_fract_y
 _atom_site_fract_z
 _atom_site_occupancy
  Ba  Ba0  1  0.62351300  0.62351300  0.24702600  1.0
  Ba  Ba1  1  0.37648700  0.37648700  0.75297400  1.0
  As  As2  1  0.75000000  0.25000000  0.50000000  1.0
  As  As3  1  0.93326600  0.93326600  0.86653200  1.0
  As  As4  1  0.06673400  0.06673400  0.13346800  1.0
  As  As5  1  0.25000000  0.75000000  0.50000000  1.0
  Pd  Pd6  1  1.00000000  0.50000000  1.00000000  1.0
  Pd  Pd7  1  0.19263200  0.19263200  0.38526400  1.0
  Pd  Pd8  1  0.50000000  1.00000000  1.00000000  1.0
  Pd  Pd9  1  0.80736800  0.80736800  0.61473600  1.0
