# generated using pymatgen
data_Ba(RhPb2)3
_symmetry_space_group_name_H-M   'P 1'
_cell_length_a   4.60179300
_cell_length_b   8.41207600
_cell_length_c   14.39701919
_cell_angle_alpha   106.98650445
_cell_angle_beta   90.00000000
_cell_angle_gamma   90.00000000
_symmetry_Int_Tables_number   1
_chemical_formula_structural   Ba(RhPb2)3
_chemical_formula_sum   'Ba2 Rh6 Pb12'
_cell_volume   533.00395002
_cell_formula_units_Z   2
loop_
 _symmetry_equiv_pos_site_id
 _symmetry_equiv_pos_as_xyz
  1  'x, y, z'
loop_
 _atom_site_type_symbol
 _atom_site_label
 _atom_site_symmetry_multiplicity
 _atom_site_fract_x
 _atom_site_fract_y
 _atom_site_fract_z
 _atom_site_occupancy
  Ba  Ba0  1  0.75000000  0.41072800  0.82145600  1.0
  Ba  Ba1  1  0.25000000  0.58927200  0.17854400  1.0
  Rh  Rh2  1  0.25000000  0.02855200  0.43482700  1.0
  Rh  Rh3  1  0.25000000  0.03697500  0.07395000  1.0
  Rh  Rh4  1  0.75000000  0.97144800  0.56517300  1.0
  Rh  Rh5  1  0.75000000  0.96302500  0.92605000  1.0
  Rh  Rh6  1  0.75000000  0.59372500  0.56517300  1.0
  Rh  Rh7  1  0.25000000  0.40627500  0.43482700  1.0
  Pb  Pb8  1  0.75000000  0.24702100  0.09219500  1.0
  Pb  Pb9  1  0.25000000  0.15482600  0.90780500  1.0
  Pb  Pb10  1  0.75000000  0.84517400  0.09219500  1.0
  Pb  Pb11  1  0.75000000  0.47393400  0.34369700  1.0
  Pb  Pb12  1  0.75000000  0.86976300  0.34369700  1.0
  Pb  Pb13  1  0.25000000  0.13023700  0.65630300  1.0
  Pb  Pb14  1  0.25000000  0.75297900  0.90780500  1.0
  Pb  Pb15  1  0.75000000  0.25012900  0.50025800  1.0
  Pb  Pb16  1  0.25000000  0.74987100  0.49974200  1.0
  Pb  Pb17  1  0.75000000  0.86523800  0.73047600  1.0
  Pb  Pb18  1  0.25000000  0.13476200  0.26952400  1.0
  Pb  Pb19  1  0.25000000  0.52606600  0.65630300  1.0
