# generated using pymatgen
data_Ba2Bi3
_symmetry_space_group_name_H-M   'P 1'
_cell_length_a   4.97302000
_cell_length_b   6.93648192
_cell_length_c   6.93648192
_cell_angle_alpha   68.75356812
_cell_angle_beta   68.99383129
_cell_angle_gamma   68.99383127
_symmetry_Int_Tables_number   1
_chemical_formula_structural   Ba2Bi3
_chemical_formula_sum   'Ba2 Bi3'
_cell_volume   200.87950634
_cell_formula_units_Z   1
loop_
 _symmetry_equiv_pos_site_id
 _symmetry_equiv_pos_as_xyz
  1  'x, y, z'
loop_
 _atom_site_type_symbol
 _atom_site_label
 _atom_site_symmetry_multiplicity
 _atom_site_fract_x
 _atom_site_fract_y
 _atom_site_fract_z
 _atom_site_occupancy
  Ba  Ba0  1  0.21976800  0.28023200  0.28023200  1.0
  Ba  Ba1  1  0.78023200  0.71976800  0.71976800  1.0
  Bi  Bi2  1  0.50000000  0.29174400  0.70825600  1.0
  Bi  Bi3  1  0.00000000  0.00000000  0.00000000  1.0
  Bi  Bi4  1  0.50000000  0.70825600  0.29174400  1.0
