# generated using pymatgen
data_Ba2CeNbO6
_symmetry_space_group_name_H-M   'P 1'
_cell_length_a   6.10344267
_cell_length_b   6.10344267
_cell_length_c   6.12600281
_cell_angle_alpha   90.39098390
_cell_angle_beta   119.46106447
_cell_angle_gamma   119.96698681
_symmetry_Int_Tables_number   1
_chemical_formula_structural   Ba2CeNbO6
_chemical_formula_sum   'Ba2 Ce1 Nb1 O6'
_cell_volume   162.20300567
_cell_formula_units_Z   1
loop_
 _symmetry_equiv_pos_site_id
 _symmetry_equiv_pos_as_xyz
  1  'x, y, z'
loop_
 _atom_site_type_symbol
 _atom_site_label
 _atom_site_symmetry_multiplicity
 _atom_site_fract_x
 _atom_site_fract_y
 _atom_site_fract_z
 _atom_site_occupancy
  Ba  Ba0  1  0.49641000  0.24875500  0.74516500  1.0
  Ba  Ba1  1  0.50359000  0.75124500  0.25483500  1.0
  Ce  Ce2  1  0.00000000  0.00000000  0.00000000  1.0
  Nb  Nb3  1  0.00000000  0.50000000  0.50000000  1.0
  O  O4  1  0.94707200  0.26519600  0.21226800  1.0
  O  O5  1  0.05292800  0.73480400  0.78773200  1.0
  O  O6  1  0.47092100  0.70879300  0.70583600  1.0
  O  O7  1  0.00295700  0.76508500  0.29416400  1.0
  O  O8  1  0.52907900  0.29120700  0.29416400  1.0
  O  O9  1  0.99704300  0.23491500  0.70583600  1.0
