# generated using pymatgen
data_Ba2CuWO6
_symmetry_space_group_name_H-M   'P 1'
_cell_length_a   5.61308600
_cell_length_b   6.00131412
_cell_length_c   5.61308600
_cell_angle_alpha   62.11783190
_cell_angle_beta   89.99999999
_cell_angle_gamma   117.88216809
_symmetry_Int_Tables_number   1
_chemical_formula_structural   Ba2CuWO6
_chemical_formula_sum   'Ba2 Cu1 W1 O6'
_cell_volume   141.82372156
_cell_formula_units_Z   1
loop_
 _symmetry_equiv_pos_site_id
 _symmetry_equiv_pos_as_xyz
  1  'x, y, z'
loop_
 _atom_site_type_symbol
 _atom_site_label
 _atom_site_symmetry_multiplicity
 _atom_site_fract_x
 _atom_site_fract_y
 _atom_site_fract_z
 _atom_site_occupancy
  Ba  Ba0  1  0.75000000  0.50000000  0.75000000  1.0
  Ba  Ba1  1  0.25000000  0.50000000  0.25000000  1.0
  Cu  Cu2  1  0.00000000  0.00000000  0.00000000  1.0
  W  W3  1  0.50000000  0.00000000  0.50000000  1.0
  O  O4  1  0.75802300  0.00000100  0.73653800  1.0
  O  O5  1  0.73653900  0.00000000  0.24197700  1.0
  O  O6  1  0.26346100  0.00000000  0.75802300  1.0
  O  O7  1  0.24197700  0.99999900  0.26346200  1.0
  O  O8  1  0.28353100  0.56706200  0.71646900  1.0
  O  O9  1  0.71646900  0.43293800  0.28353100  1.0
