# generated using pymatgen
data_Ba2FeReO6
_symmetry_space_group_name_H-M   'P 1'
_cell_length_a   5.76700043
_cell_length_b   5.76697329
_cell_length_c   5.77013621
_cell_angle_alpha   119.97060876
_cell_angle_beta   119.97008785
_cell_angle_gamma   90.01392405
_symmetry_Int_Tables_number   1
_chemical_formula_structural   Ba2FeReO6
_chemical_formula_sum   'Ba2 Fe1 Re1 O6'
_cell_volume   135.80169818
_cell_formula_units_Z   1
loop_
 _symmetry_equiv_pos_site_id
 _symmetry_equiv_pos_as_xyz
  1  'x, y, z'
loop_
 _atom_site_type_symbol
 _atom_site_label
 _atom_site_symmetry_multiplicity
 _atom_site_fract_x
 _atom_site_fract_y
 _atom_site_fract_z
 _atom_site_occupancy
  Ba  Ba0  1  0.75001000  0.24999400  0.50000200  1.0
  Ba  Ba1  1  0.24999100  0.75000700  0.50000000  1.0
  Fe  Fe2  1  0.99999900  0.00000100  0.00000100  1.0
  Re  Re3  1  0.49999800  0.49999800  0.99999600  1.0
  O  O4  1  0.25685900  0.25686100  0.51372300  1.0
  O  O5  1  0.74314100  0.74314000  0.48627800  1.0
  O  O6  1  0.25749800  0.25749800  0.99999500  1.0
  O  O7  1  0.25737800  0.74262100  0.99999900  1.0
  O  O8  1  0.74250300  0.74250200  0.00000600  1.0
  O  O9  1  0.74262300  0.25737900  0.00000100  1.0
