# generated using pymatgen
data_Ba2LuIrO6
_symmetry_space_group_name_H-M   'P 1'
_cell_length_a   5.90118300
_cell_length_b   5.90118300
_cell_length_c   5.90485897
_cell_angle_alpha   119.97940893
_cell_angle_beta   119.97940893
_cell_angle_gamma   90.00000000
_symmetry_Int_Tables_number   1
_chemical_formula_structural   Ba2LuIrO6
_chemical_formula_sum   'Ba2 Lu1 Ir1 O6'
_cell_volume   145.49323715
_cell_formula_units_Z   1
loop_
 _symmetry_equiv_pos_site_id
 _symmetry_equiv_pos_as_xyz
  1  'x, y, z'
loop_
 _atom_site_type_symbol
 _atom_site_label
 _atom_site_symmetry_multiplicity
 _atom_site_fract_x
 _atom_site_fract_y
 _atom_site_fract_z
 _atom_site_occupancy
  Ba  Ba0  1  0.75000000  0.25000000  0.50000000  1.0
  Ba  Ba2  1  0.25000000  0.75000000  0.50000000  1.0
  Ir  Ir6  1  0.00000000  0.00000000  0.00000000  1.0
  Lu  Lu4  1  0.50000000  0.50000000  1.00000000  1.0
  O  O8  1  0.23868250  0.23868250  1.00000000  1.0
  O  O9  1  0.23868250  0.76131750  1.00000000  1.0
  O  O10  1  0.76131750  0.76131750  1.00000000  1.0
  O  O11  1  0.76131750  0.23868250  1.00000000  1.0
  O  O16  1  0.76121800  0.76121800  0.52243600  1.0
  O  O18  1  0.23878200  0.23878200  0.47756400  1.0
