# generated using pymatgen
data_Ba2LaIrO6
_symmetry_space_group_name_H-M   'P 1'
_cell_length_a   6.09227800
_cell_length_b   6.09971303
_cell_length_c   6.12200908
_cell_angle_alpha   60.38593149
_cell_angle_beta   60.16051965
_cell_angle_gamma   60.04031317
_symmetry_Int_Tables_number   1
_chemical_formula_structural   Ba2LaIrO6
_chemical_formula_sum   'Ba2 La1 Ir1 O6'
_cell_volume   161.57687829
_cell_formula_units_Z   1
loop_
 _symmetry_equiv_pos_site_id
 _symmetry_equiv_pos_as_xyz
  1  'x, y, z'
loop_
 _atom_site_type_symbol
 _atom_site_label
 _atom_site_symmetry_multiplicity
 _atom_site_fract_x
 _atom_site_fract_y
 _atom_site_fract_z
 _atom_site_occupancy
  Ba  Ba0  1  0.25184600  0.75046300  0.74584500  1.0
  Ba  Ba1  1  0.74815400  0.24953700  0.25415500  1.0
  La  La2  1  0.50000000  0.00000000  1.00000000  1.0
  Ir  Ir3  1  0.00000000  0.50000000  0.50000000  1.0
  O  O4  1  0.77151100  0.68588900  0.77108900  1.0
  O  O5  1  0.22848900  0.31411100  0.22891100  1.0
  O  O6  1  0.25293800  0.24978400  0.70545900  1.0
  O  O7  1  0.20818100  0.75021600  0.29454100  1.0
  O  O8  1  0.74706200  0.75021600  0.29454100  1.0
  O  O9  1  0.79181900  0.24978400  0.70545900  1.0
