# generated using pymatgen
data_Ba2La2MgTi3O12
_symmetry_space_group_name_H-M   'P 1'
_cell_length_a   5.68772491
_cell_length_b   5.68772491
_cell_length_c   9.69228171
_cell_angle_alpha   72.93745995
_cell_angle_beta   72.93745995
_cell_angle_gamma   59.99998945
_symmetry_Int_Tables_number   1
_chemical_formula_structural   Ba2La2MgTi3O12
_chemical_formula_sum   'Ba2 La2 Mg1 Ti3 O12'
_cell_volume   255.48000390
_cell_formula_units_Z   1
loop_
 _symmetry_equiv_pos_site_id
 _symmetry_equiv_pos_as_xyz
  1  'x, y, z'
loop_
 _atom_site_type_symbol
 _atom_site_label
 _atom_site_symmetry_multiplicity
 _atom_site_fract_x
 _atom_site_fract_y
 _atom_site_fract_z
 _atom_site_occupancy
  Ba  Ba0  1  0.62447000  0.62447000  0.12659000  1.0
  Ba  Ba1  1  0.37553000  0.37553000  0.87341000  1.0
  La  La2  1  0.12622900  0.12622900  0.62131300  1.0
  La  La3  1  0.87377100  0.87377100  0.37868700  1.0
  Mg  Mg4  1  0.50000000  0.50000000  0.50000000  1.0
  Ti  Ti5  1  0.00000000  0.00000000  0.00000000  1.0
  Ti  Ti6  1  0.75295500  0.75295500  0.74113500  1.0
  Ti  Ti7  1  0.24704500  0.24704500  0.25886500  1.0
  O  O8  1  0.63587400  0.10878800  0.61946400  1.0
  O  O9  1  0.88241800  0.36665100  0.86851300  1.0
  O  O10  1  0.36412600  0.89121200  0.38053600  1.0
  O  O11  1  0.11758200  0.63334900  0.13148700  1.0
  O  O12  1  0.89121200  0.36412600  0.38053600  1.0
  O  O13  1  0.10878800  0.63587400  0.61946400  1.0
  O  O14  1  0.63334900  0.11758200  0.13148700  1.0
  O  O15  1  0.36665100  0.88241800  0.86851300  1.0
  O  O16  1  0.36412600  0.36412600  0.38053600  1.0
  O  O17  1  0.63587400  0.63587400  0.61946400  1.0
  O  O18  1  0.11758200  0.11758200  0.13148700  1.0
  O  O19  1  0.88241800  0.88241800  0.86851300  1.0
