# generated using pymatgen
data_Ba2Mn2O5
_symmetry_space_group_name_H-M   'P 1'
_cell_length_a   5.80903000
_cell_length_b   5.81659000
_cell_length_c   9.27191484
_cell_angle_alpha   108.28036895
_cell_angle_beta   108.25577069
_cell_angle_gamma   89.99999999
_symmetry_Int_Tables_number   1
_chemical_formula_structural   Ba2Mn2O5
_chemical_formula_sum   'Ba4 Mn4 O10'
_cell_volume   280.82090235
_cell_formula_units_Z   2
loop_
 _symmetry_equiv_pos_site_id
 _symmetry_equiv_pos_as_xyz
  1  'x, y, z'
loop_
 _atom_site_type_symbol
 _atom_site_label
 _atom_site_symmetry_multiplicity
 _atom_site_fract_x
 _atom_site_fract_y
 _atom_site_fract_z
 _atom_site_occupancy
  Ba  Ba0  1  0.11495700  0.60929200  0.22714000  1.0
  Ba  Ba1  1  0.88504300  0.38215200  0.77286000  1.0
  Ba  Ba2  1  0.61218300  0.10929200  0.22714000  1.0
  Ba  Ba3  1  0.38781700  0.88215200  0.77286000  1.0
  Mn  Mn4  1  1.00000000  0.99538500  1.00000000  1.0
  Mn  Mn5  1  0.50000000  0.49538500  0.00000000  1.0
  Mn  Mn6  1  0.29923300  0.23510600  0.50000000  1.0
  Mn  Mn7  1  0.70076700  0.73510600  0.50000000  1.0
  O  O8  1  0.74429800  0.23957500  0.99197300  1.0
  O  O9  1  0.25570200  0.24760200  0.00802700  1.0
  O  O10  1  0.74767500  0.73957500  0.99197300  1.0
  O  O11  1  0.25232500  0.74760200  0.00802700  1.0
  O  O12  1  0.10316900  0.14591200  0.28266600  1.0
  O  O13  1  0.89683100  0.86324600  0.71733400  1.0
  O  O14  1  0.67949700  0.64591200  0.28266600  1.0
  O  O15  1  0.32050300  0.36324600  0.71733400  1.0
  O  O16  1  0.44414700  0.94572900  0.50000000  1.0
  O  O17  1  0.55585300  0.44572900  0.50000000  1.0
