# generated using pymatgen
data_Ba2NiMoO6
_symmetry_space_group_name_H-M   'P 1'
_cell_length_a   5.78727200
_cell_length_b   5.78726989
_cell_length_c   5.78727560
_cell_angle_alpha   60.00016831
_cell_angle_beta   59.99999620
_cell_angle_gamma   60.00012700
_symmetry_Int_Tables_number   1
_chemical_formula_structural   Ba2NiMoO6
_chemical_formula_sum   'Ba2 Ni1 Mo1 O6'
_cell_volume   137.05906174
_cell_formula_units_Z   1
loop_
 _symmetry_equiv_pos_site_id
 _symmetry_equiv_pos_as_xyz
  1  'x, y, z'
loop_
 _atom_site_type_symbol
 _atom_site_label
 _atom_site_symmetry_multiplicity
 _atom_site_fract_x
 _atom_site_fract_y
 _atom_site_fract_z
 _atom_site_occupancy
  Ba  Ba0  1  0.25000000  0.25000000  0.25000000  1.0
  Ba  Ba2  1  0.75000000  0.75000100  0.75000100  1.0
  Mo  Mo6  1  0.50000000  0.50000100  0.50000000  1.0
  Ni  Ni4  1  0.00000000  1.00000000  0.99999150  1.0
  O  O8  1  0.26050700  0.73949300  0.73949450  1.0
  O  O10  1  0.26050700  0.73949200  0.26051050  1.0
  O  O12  1  0.73949300  0.73949250  0.26050850  1.0
  O  O14  1  0.73949300  0.26050800  0.26050850  1.0
  O  O16  1  0.73949300  0.26050900  0.73949250  1.0
  O  O18  1  0.26050700  0.26050750  0.73949350  1.0
