# generated using pymatgen
data_Ba2Pr(CuO2)4
_symmetry_space_group_name_H-M   'P 1'
_cell_length_a   3.92911000
_cell_length_b   3.94970800
_cell_length_c   13.95458511
_cell_angle_alpha   90.00000000
_cell_angle_beta   98.09310222
_cell_angle_gamma   90.00000000
_symmetry_Int_Tables_number   1
_chemical_formula_structural   Ba2Pr(CuO2)4
_chemical_formula_sum   'Ba2 Pr1 Cu4 O8'
_cell_volume   214.40214047
_cell_formula_units_Z   1
loop_
 _symmetry_equiv_pos_site_id
 _symmetry_equiv_pos_as_xyz
  1  'x, y, z'
loop_
 _atom_site_type_symbol
 _atom_site_label
 _atom_site_symmetry_multiplicity
 _atom_site_fract_x
 _atom_site_fract_y
 _atom_site_fract_z
 _atom_site_occupancy
  Ba  Ba0  1  0.63701900  0.50000000  0.27403800  1.0
  Ba  Ba1  1  0.36298100  0.50000000  0.72596200  1.0
  Pr  Pr2  1  0.50000000  0.50000000  0.00000000  1.0
  Cu  Cu3  1  0.06506100  0.00000000  0.13012200  1.0
  Cu  Cu4  1  0.93493900  0.00000000  0.86987800  1.0
  Cu  Cu5  1  0.21300200  0.00000000  0.42600400  1.0
  Cu  Cu6  1  0.78699800  0.00000000  0.57399600  1.0
  O  O7  1  0.71857900  0.00000000  0.43715800  1.0
  O  O8  1  0.28142100  0.00000000  0.56284200  1.0
  O  O9  1  0.55578600  0.00000000  0.11157200  1.0
  O  O10  1  0.44421400  0.00000000  0.88842800  1.0
  O  O11  1  0.05634500  0.50000000  0.11269000  1.0
  O  O12  1  0.94365500  0.50000000  0.88731000  1.0
  O  O13  1  0.14629600  0.00000000  0.29259200  1.0
  O  O14  1  0.85370400  0.00000000  0.70740800  1.0
