# generated using pymatgen
data_Ba2YGaTe5
_symmetry_space_group_name_H-M   'P 1'
_cell_length_a   4.52207800
_cell_length_b   10.47052930
_cell_length_c   14.35105100
_cell_angle_alpha   90.00000000
_cell_angle_beta   90.00000000
_cell_angle_gamma   102.47086527
_symmetry_Int_Tables_number   1
_chemical_formula_structural   Ba2YGaTe5
_chemical_formula_sum   'Ba4 Y2 Ga2 Te10'
_cell_volume   663.46926026
_cell_formula_units_Z   2
loop_
 _symmetry_equiv_pos_site_id
 _symmetry_equiv_pos_as_xyz
  1  'x, y, z'
loop_
 _atom_site_type_symbol
 _atom_site_label
 _atom_site_symmetry_multiplicity
 _atom_site_fract_x
 _atom_site_fract_y
 _atom_site_fract_z
 _atom_site_occupancy
  Ba  Ba0  1  0.12746900  0.25493800  0.82092800  1.0
  Ba  Ba1  1  0.87253100  0.74506200  0.32092800  1.0
  Ba  Ba2  1  0.12097800  0.24195600  0.18250800  1.0
  Ba  Ba3  1  0.87902200  0.75804400  0.68250800  1.0
  Y  Y4  1  0.20512700  0.41025400  0.52060600  1.0
  Y  Y5  1  0.79487300  0.58974600  0.02060600  1.0
  Ga  Ga6  1  0.44094200  0.88188400  0.92419100  1.0
  Ga  Ga7  1  0.55905800  0.11811600  0.42419100  1.0
  Te  Te8  1  0.35212100  0.70424200  0.50310000  1.0
  Te  Te9  1  0.64787900  0.29575800  0.00310000  1.0
  Te  Te10  1  0.29595000  0.59190000  0.16476300  1.0
  Te  Te11  1  0.70405000  0.40810000  0.66476300  1.0
  Te  Te12  1  0.31323000  0.62646000  0.86725500  1.0
  Te  Te13  1  0.68677000  0.37354000  0.36725500  1.0
  Te  Te14  1  0.50168500  0.00337000  0.76388100  1.0
  Te  Te15  1  0.49831500  0.99663000  0.26388100  1.0
  Te  Te16  1  0.04551200  0.09102400  0.53234800  1.0
  Te  Te17  1  0.95448800  0.90897600  0.03234800  1.0
