# generated using pymatgen
data_Ba3(LiSb)4
_symmetry_space_group_name_H-M   'P 1'
_cell_length_a   5.05953200
_cell_length_b   7.68026000
_cell_length_c   9.49155383
_cell_angle_alpha   113.86505569
_cell_angle_beta   105.45777374
_cell_angle_gamma   90.00000001
_symmetry_Int_Tables_number   1
_chemical_formula_structural   Ba3(LiSb)4
_chemical_formula_sum   'Ba3 Li4 Sb4'
_cell_volume   322.65042321
_cell_formula_units_Z   1
loop_
 _symmetry_equiv_pos_site_id
 _symmetry_equiv_pos_as_xyz
  1  'x, y, z'
loop_
 _atom_site_type_symbol
 _atom_site_label
 _atom_site_symmetry_multiplicity
 _atom_site_fract_x
 _atom_site_fract_y
 _atom_site_fract_z
 _atom_site_occupancy
  Ba  Ba0  1  0.86760200  0.36760200  0.73520400  1.0
  Ba  Ba1  1  0.13239800  0.63239800  0.26479600  1.0
  Ba  Ba2  1  0.00000000  0.00000000  0.00000000  1.0
  Li  Li3  1  0.32430300  0.01832300  0.64860600  1.0
  Li  Li4  1  0.67569700  0.98167700  0.35139400  1.0
  Li  Li5  1  0.67569700  0.36971700  0.35139400  1.0
  Li  Li6  1  0.32430300  0.63028300  0.64860600  1.0
  Sb  Sb7  1  0.21298600  0.21298600  0.42597200  1.0
  Sb  Sb8  1  0.78701400  0.78701400  0.57402800  1.0
  Sb  Sb9  1  0.50000000  0.31375000  0.00000000  1.0
  Sb  Sb10  1  0.50000000  0.68625000  0.00000000  1.0
