# generated using pymatgen
data_Ba3(AsO4)2
_symmetry_space_group_name_H-M   'P 1'
_cell_length_a   5.88147166
_cell_length_b   5.88147166
_cell_length_c   7.96406256
_cell_angle_alpha   68.33058810
_cell_angle_beta   68.33058810
_cell_angle_gamma   60.00000388
_symmetry_Int_Tables_number   1
_chemical_formula_structural   Ba3(AsO4)2
_chemical_formula_sum   'Ba3 As2 O8'
_cell_volume   215.80845617
_cell_formula_units_Z   1
loop_
 _symmetry_equiv_pos_site_id
 _symmetry_equiv_pos_as_xyz
  1  'x, y, z'
loop_
 _atom_site_type_symbol
 _atom_site_label
 _atom_site_symmetry_multiplicity
 _atom_site_fract_x
 _atom_site_fract_y
 _atom_site_fract_z
 _atom_site_occupancy
  Ba  Ba0  1  0.79303100  0.79303100  0.62090700  1.0
  Ba  Ba1  1  0.20696900  0.20696900  0.37909300  1.0
  Ba  Ba2  1  0.00000000  0.00000000  0.00000000  1.0
  As  As3  1  0.59278300  0.59278300  0.22165100  1.0
  As  As4  1  0.40721800  0.40721800  0.77834700  1.0
  O  O5  1  0.67217800  0.67217800  0.98346600  1.0
  O  O6  1  0.32782200  0.32782200  0.01653400  1.0
  O  O7  1  0.72619400  0.72619400  0.30203700  1.0
  O  O8  1  0.72619400  0.24557500  0.30203700  1.0
  O  O9  1  0.24557500  0.72619400  0.30203700  1.0
  O  O10  1  0.27380600  0.75442500  0.69796300  1.0
  O  O11  1  0.27380600  0.27380600  0.69796300  1.0
  O  O12  1  0.75442500  0.27380600  0.69796300  1.0
