# generated using pymatgen
data_Ba3(AlSn)2
_symmetry_space_group_name_H-M   'P 1'
_cell_length_a   4.62913000
_cell_length_b   5.27966000
_cell_length_c   10.99958927
_cell_angle_alpha   103.88615711
_cell_angle_beta   102.14713388
_cell_angle_gamma   90.00000001
_symmetry_Int_Tables_number   1
_chemical_formula_structural   Ba3(AlSn)2
_chemical_formula_sum   'Ba3 Al2 Sn2'
_cell_volume   254.77116673
_cell_formula_units_Z   1
loop_
 _symmetry_equiv_pos_site_id
 _symmetry_equiv_pos_as_xyz
  1  'x, y, z'
loop_
 _atom_site_type_symbol
 _atom_site_label
 _atom_site_symmetry_multiplicity
 _atom_site_fract_x
 _atom_site_fract_y
 _atom_site_fract_z
 _atom_site_occupancy
  Ba  Ba0  1  0.50000000  1.00000000  0.00000000  1.0
  Ba  Ba1  1  0.18170400  0.18170400  0.36340800  1.0
  Ba  Ba2  1  0.81829600  0.81829600  0.63659200  1.0
  Al  Al3  1  0.06138500  0.56138500  0.12277000  1.0
  Al  Al4  1  0.93861500  0.43861500  0.87723000  1.0
  Sn  Sn5  1  0.63592100  0.63592100  0.27184200  1.0
  Sn  Sn6  1  0.36407900  0.36407900  0.72815800  1.0
