# generated using pymatgen
data_Ba3FeN3
_symmetry_space_group_name_H-M   'P 1'
_cell_length_a   5.62874100
_cell_length_b   8.17605000
_cell_length_c   8.17605000
_cell_angle_alpha   120.00000001
_cell_angle_beta   90.00000000
_cell_angle_gamma   90.00000000
_symmetry_Int_Tables_number   1
_chemical_formula_structural   Ba3FeN3
_chemical_formula_sum   'Ba6 Fe2 N6'
_cell_volume   325.85844050
_cell_formula_units_Z   2
loop_
 _symmetry_equiv_pos_site_id
 _symmetry_equiv_pos_as_xyz
  1  'x, y, z'
loop_
 _atom_site_type_symbol
 _atom_site_label
 _atom_site_symmetry_multiplicity
 _atom_site_fract_x
 _atom_site_fract_y
 _atom_site_fract_z
 _atom_site_occupancy
  Ba  Ba0  1  0.25000000  0.28122300  0.91761600  1.0
  Ba  Ba1  1  0.75000000  0.91761600  0.63639300  1.0
  Ba  Ba2  1  0.75000000  0.36360700  0.28122300  1.0
  Ba  Ba3  1  0.25000000  0.63639300  0.71877700  1.0
  Ba  Ba4  1  0.25000000  0.08238400  0.36360700  1.0
  Ba  Ba5  1  0.75000000  0.71877700  0.08238400  1.0
  Fe  Fe6  1  0.75000000  0.33333333  0.66666667  1.0
  Fe  Fe7  1  0.25000000  0.66666667  0.33333333  1.0
  N  N8  1  0.25000000  0.44655800  0.31704700  1.0
  N  N9  1  0.75000000  0.31704600  0.87048800  1.0
  N  N10  1  0.75000000  0.12951100  0.44655700  1.0
  N  N11  1  0.25000000  0.87048900  0.55344300  1.0
  N  N12  1  0.25000000  0.68295400  0.12951200  1.0
  N  N13  1  0.75000000  0.55344200  0.68295300  1.0
