# generated using pymatgen
data_Ba3ReN3
_symmetry_space_group_name_H-M   'P 1'
_cell_length_a   5.77765400
_cell_length_b   8.27884395
_cell_length_c   8.27972864
_cell_angle_alpha   119.99755722
_cell_angle_beta   90.00000000
_cell_angle_gamma   90.00000000
_symmetry_Int_Tables_number   1
_chemical_formula_structural   Ba3ReN3
_chemical_formula_sum   'Ba6 Re2 N6'
_cell_volume   342.98778328
_cell_formula_units_Z   2
loop_
 _symmetry_equiv_pos_site_id
 _symmetry_equiv_pos_as_xyz
  1  'x, y, z'
loop_
 _atom_site_type_symbol
 _atom_site_label
 _atom_site_symmetry_multiplicity
 _atom_site_fract_x
 _atom_site_fract_y
 _atom_site_fract_z
 _atom_site_occupancy
  Ba  Ba0  1  0.25000000  0.25996200  0.89983400  1.0
  Ba  Ba1  1  0.25000000  0.63992800  0.74005000  1.0
  Ba  Ba2  1  0.25000000  0.10005500  0.36012200  1.0
  Ba  Ba3  1  0.75000000  0.74003800  0.10016600  1.0
  Ba  Ba4  1  0.75000000  0.36007200  0.25995000  1.0
  Ba  Ba5  1  0.75000000  0.89994500  0.63987800  1.0
  Re  Re6  1  0.75000000  0.33332700  0.66673800  1.0
  Re  Re7  1  0.25000000  0.66667300  0.33326200  1.0
  N  N8  1  0.75000000  0.31850000  0.88165300  1.0
  N  N9  1  0.75000000  0.56306400  0.68151300  1.0
  N  N10  1  0.75000000  0.11834300  0.43683100  1.0
  N  N11  1  0.25000000  0.68150000  0.11834700  1.0
  N  N12  1  0.25000000  0.43693600  0.31848700  1.0
  N  N13  1  0.25000000  0.88165700  0.56316900  1.0
