# generated using pymatgen
data_Ba8Fe3N8
_symmetry_space_group_name_H-M   'P 1'
_cell_length_a   5.71018340
_cell_length_b   7.91174083
_cell_length_c   10.28493176
_cell_angle_alpha   105.42018563
_cell_angle_beta   106.11699490
_cell_angle_gamma   90.00000394
_symmetry_Int_Tables_number   1
_chemical_formula_structural   Ba8Fe3N8
_chemical_formula_sum   'Ba8 Fe3 N8'
_cell_volume   428.94730349
_cell_formula_units_Z   1
loop_
 _symmetry_equiv_pos_site_id
 _symmetry_equiv_pos_as_xyz
  1  'x, y, z'
loop_
 _atom_site_type_symbol
 _atom_site_label
 _atom_site_symmetry_multiplicity
 _atom_site_fract_x
 _atom_site_fract_y
 _atom_site_fract_z
 _atom_site_occupancy
  Ba  Ba0  1  0.02811100  0.26870600  0.05622100  1.0
  Ba  Ba1  1  0.97188900  0.73129400  0.94377900  1.0
  Ba  Ba2  1  0.33221500  0.52843200  0.66442900  1.0
  Ba  Ba3  1  0.66778500  0.47156800  0.33557100  1.0
  Ba  Ba4  1  0.39798700  0.05157900  0.79597500  1.0
  Ba  Ba5  1  0.60201300  0.94842100  0.20402500  1.0
  Ba  Ba6  1  0.79693700  0.19480500  0.59387400  1.0
  Ba  Ba7  1  0.20306300  0.80519500  0.40612600  1.0
  Fe  Fe8  1  0.50000000  0.50000000  1.00000000  1.0
  Fe  Fe9  1  0.18553800  0.20034500  0.37107500  1.0
  Fe  Fe10  1  0.81446200  0.79965500  0.62892500  1.0
  N  N11  1  0.10907400  0.02079700  0.21814800  1.0
  N  N12  1  0.89092600  0.97920300  0.78185200  1.0
  N  N13  1  0.17869700  0.41329500  0.35739500  1.0
  N  N14  1  0.82130300  0.58670500  0.64260500  1.0
  N  N15  1  0.26986600  0.16521600  0.53973200  1.0
  N  N16  1  0.73013400  0.83478400  0.46026800  1.0
  N  N17  1  0.52125000  0.30245600  0.04249800  1.0
  N  N18  1  0.47875000  0.69754400  0.95750200  1.0
