# generated using pymatgen
data_BaAg2SnSe4
_symmetry_space_group_name_H-M   'P 1'
_cell_length_a   6.77408722
_cell_length_b   6.77408722
_cell_length_c   6.77408722
_cell_angle_alpha   78.60961275
_cell_angle_beta   68.45642199
_cell_angle_gamma   115.80427981
_symmetry_Int_Tables_number   1
_chemical_formula_structural   BaAg2SnSe4
_chemical_formula_sum   'Ba1 Ag2 Sn1 Se4'
_cell_volume   235.41360125
_cell_formula_units_Z   1
loop_
 _symmetry_equiv_pos_site_id
 _symmetry_equiv_pos_as_xyz
  1  'x, y, z'
loop_
 _atom_site_type_symbol
 _atom_site_label
 _atom_site_symmetry_multiplicity
 _atom_site_fract_x
 _atom_site_fract_y
 _atom_site_fract_z
 _atom_site_occupancy
  Ba  Ba0  1  0.00000000  0.00000000  0.00000000  1.0
  Ag  Ag1  1  0.50000000  0.80961900  0.69038100  1.0
  Ag  Ag2  1  0.50000000  0.19038100  0.30961900  1.0
  Sn  Sn3  1  0.00000000  0.50000000  0.50000000  1.0
  Se  Se4  1  0.59909000  0.12055300  0.86928700  1.0
  Se  Se5  1  0.98984000  0.46837700  0.13071300  1.0
  Se  Se6  1  0.40091000  0.53162200  0.47853700  1.0
  Se  Se7  1  0.01016000  0.87944800  0.52146300  1.0
