# generated using pymatgen
data_BaCu4S3
_symmetry_space_group_name_H-M   'P 1'
_cell_length_a   3.96139000
_cell_length_b   7.47708248
_cell_length_c   10.20764000
_cell_angle_alpha   90.00000000
_cell_angle_beta   90.00000000
_cell_angle_gamma   105.36113683
_symmetry_Int_Tables_number   1
_chemical_formula_structural   BaCu4S3
_chemical_formula_sum   'Ba2 Cu8 S6'
_cell_volume   291.54537940
_cell_formula_units_Z   2
loop_
 _symmetry_equiv_pos_site_id
 _symmetry_equiv_pos_as_xyz
  1  'x, y, z'
loop_
 _atom_site_type_symbol
 _atom_site_label
 _atom_site_symmetry_multiplicity
 _atom_site_fract_x
 _atom_site_fract_y
 _atom_site_fract_z
 _atom_site_occupancy
  Ba  Ba0  1  0.74637200  0.49274400  0.75000000  1.0
  Ba  Ba1  1  0.25362800  0.50725600  0.25000000  1.0
  Cu  Cu2  1  0.50253500  0.00507000  0.12701700  1.0
  Cu  Cu3  1  0.49746500  0.99493000  0.87298300  1.0
  Cu  Cu4  1  0.09383400  0.18766800  0.52247100  1.0
  Cu  Cu5  1  0.90616600  0.81233200  0.47752900  1.0
  Cu  Cu6  1  0.90616600  0.81233200  0.02247100  1.0
  Cu  Cu7  1  0.09383400  0.18766800  0.97752900  1.0
  Cu  Cu8  1  0.50253500  0.00507000  0.37298300  1.0
  Cu  Cu9  1  0.49746500  0.99493000  0.62701700  1.0
  S  S10  1  0.05841800  0.11683600  0.75000000  1.0
  S  S11  1  0.94158200  0.88316400  0.25000000  1.0
  S  S12  1  0.65057400  0.30114800  0.44917800  1.0
  S  S13  1  0.34942600  0.69885200  0.55082200  1.0
  S  S14  1  0.34942600  0.69885200  0.94917800  1.0
  S  S15  1  0.65057400  0.30114800  0.05082200  1.0
