# generated using pymatgen
data_BaDyFe2O5
_symmetry_space_group_name_H-M   'P 1'
_cell_length_a   3.97044650
_cell_length_b   3.97871100
_cell_length_c   7.73136200
_cell_angle_alpha   90.00000000
_cell_angle_beta   90.00000000
_cell_angle_gamma   90.00000000
_symmetry_Int_Tables_number   1
_chemical_formula_structural   BaDyFe2O5
_chemical_formula_sum   'Ba1 Dy1 Fe2 O5'
_cell_volume   122.13432921
_cell_formula_units_Z   1
loop_
 _symmetry_equiv_pos_site_id
 _symmetry_equiv_pos_as_xyz
  1  'x, y, z'
loop_
 _atom_site_type_symbol
 _atom_site_label
 _atom_site_symmetry_multiplicity
 _atom_site_fract_x
 _atom_site_fract_y
 _atom_site_fract_z
 _atom_site_occupancy
  Ba  Ba0  1  0.00000000  0.00000000  0.00000000  1.0
  Dy  Dy2  1  0.00000000  0.00000000  0.50000000  1.0
  Fe  Fe4  1  0.50000000  0.50000000  0.72958050  1.0
  Fe  Fe5  1  0.50000000  0.50000000  0.27041950  1.0
  O  O8  1  0.00000000  0.50000000  0.68268400  1.0
  O  O9  1  0.00000000  0.50000000  0.31731600  1.0
  O  O12  1  0.50000000  0.00000000  0.68340800  1.0
  O  O13  1  0.50000000  0.00000000  0.31659200  1.0
  O  O16  1  0.50000000  0.50000000  0.00000000  1.0
