# generated using pymatgen
data_BaGe2
_symmetry_space_group_name_H-M   'P 1'
_cell_length_a   4.82628000
_cell_length_b   4.82628000
_cell_length_c   8.19955118
_cell_angle_alpha   107.11565544
_cell_angle_beta   107.11565543
_cell_angle_gamma   90.00000001
_symmetry_Int_Tables_number   1
_chemical_formula_structural   BaGe2
_chemical_formula_sum   'Ba2 Ge4'
_cell_volume   173.66341083
_cell_formula_units_Z   2
loop_
 _symmetry_equiv_pos_site_id
 _symmetry_equiv_pos_as_xyz
  1  'x, y, z'
loop_
 _atom_site_type_symbol
 _atom_site_label
 _atom_site_symmetry_multiplicity
 _atom_site_fract_x
 _atom_site_fract_y
 _atom_site_fract_z
 _atom_site_occupancy
  Ba  Ba0  1  0.50000000  0.50000000  0.00000000  1.0
  Ba  Ba1  1  0.25000000  0.75000000  0.50000000  1.0
  Ge  Ge2  1  0.83312100  0.33312100  0.66624200  1.0
  Ge  Ge3  1  0.08312100  0.08312100  0.16624200  1.0
  Ge  Ge4  1  0.66687900  0.16687900  0.33375800  1.0
  Ge  Ge5  1  0.91687900  0.91687900  0.83375800  1.0
