# generated using pymatgen
data_BaIn9Ir2
_symmetry_space_group_name_H-M   'P 1'
_cell_length_a   4.35837200
_cell_length_b   9.00678600
_cell_length_c   9.00678558
_cell_angle_alpha   120.00000153
_cell_angle_beta   90.00000000
_cell_angle_gamma   90.00000000
_symmetry_Int_Tables_number   1
_chemical_formula_structural   BaIn9Ir2
_chemical_formula_sum   'Ba1 In9 Ir2'
_cell_volume   306.19252814
_cell_formula_units_Z   1
loop_
 _symmetry_equiv_pos_site_id
 _symmetry_equiv_pos_as_xyz
  1  'x, y, z'
loop_
 _atom_site_type_symbol
 _atom_site_label
 _atom_site_symmetry_multiplicity
 _atom_site_fract_x
 _atom_site_fract_y
 _atom_site_fract_z
 _atom_site_occupancy
  Ba  Ba0  1  0.00000000  0.00000000  0.00000000  1.0
  In  In1  1  0.50000000  0.41541500  0.20770700  1.0
  In  In2  1  0.50000000  0.79229200  0.58458400  1.0
  In  In3  1  0.50000000  0.79229200  0.20770700  1.0
  In  In4  1  0.50000000  0.20770800  0.79229300  1.0
  In  In5  1  0.50000000  0.20770800  0.41541600  1.0
  In  In6  1  0.50000000  0.58458500  0.79229300  1.0
  In  In7  1  1.00000000  0.00000000  0.50000000  1.0
  In  In8  1  0.00000000  0.50000000  0.00000000  1.0
  In  In9  1  0.00000000  0.50000000  0.50000000  1.0
  Ir  Ir10  1  1.00000000  0.66666667  0.33333333  1.0
  Ir  Ir11  1  0.00000000  0.33333333  0.66666667  1.0
