# generated using pymatgen
data_BaNaBi
_symmetry_space_group_name_H-M   'P 1'
_cell_length_a   5.16790000
_cell_length_b   8.74155200
_cell_length_c   8.74155191
_cell_angle_alpha   120.00000033
_cell_angle_beta   90.00000000
_cell_angle_gamma   90.00000000
_symmetry_Int_Tables_number   1
_chemical_formula_structural   BaNaBi
_chemical_formula_sum   'Ba3 Na3 Bi3'
_cell_volume   341.99662303
_cell_formula_units_Z   3
loop_
 _symmetry_equiv_pos_site_id
 _symmetry_equiv_pos_as_xyz
  1  'x, y, z'
loop_
 _atom_site_type_symbol
 _atom_site_label
 _atom_site_symmetry_multiplicity
 _atom_site_fract_x
 _atom_site_fract_y
 _atom_site_fract_z
 _atom_site_occupancy
  Ba  Ba0  1  1.00000000  0.58241300  0.58241300  1.0
  Ba  Ba1  1  1.00000000  0.41758700  0.00000000  1.0
  Ba  Ba2  1  1.00000000  1.00000000  0.41758700  1.0
  Na  Na3  1  0.50000000  0.23999300  0.23999300  1.0
  Na  Na4  1  0.50000000  1.00000000  0.76000700  1.0
  Na  Na5  1  0.50000000  0.76000700  0.00000000  1.0
  Bi  Bi6  1  0.00000000  0.00000000  0.00000000  1.0
  Bi  Bi7  1  0.50000000  0.66666667  0.33333333  1.0
  Bi  Bi8  1  0.50000000  0.33333333  0.66666667  1.0
