# generated using pymatgen
data_BaNd2CoO5
_symmetry_space_group_name_H-M   'P 1'
_cell_length_a   3.77175011
_cell_length_b   6.01752891
_cell_length_c   7.00751937
_cell_angle_alpha   64.57812080
_cell_angle_beta   74.38799227
_cell_angle_gamma   89.99987170
_symmetry_Int_Tables_number   1
_chemical_formula_structural   BaNd2CoO5
_chemical_formula_sum   'Ba1 Nd2 Co1 O5'
_cell_volume   137.12142947
_cell_formula_units_Z   1
loop_
 _symmetry_equiv_pos_site_id
 _symmetry_equiv_pos_as_xyz
  1  'x, y, z'
loop_
 _atom_site_type_symbol
 _atom_site_label
 _atom_site_symmetry_multiplicity
 _atom_site_fract_x
 _atom_site_fract_y
 _atom_site_fract_z
 _atom_site_occupancy
  Ba  Ba0  1  0.00000000  0.00000000  0.00000000  1.0
  Nd  Nd1  1  0.79631500  0.29636800  0.40724500  1.0
  Nd  Nd2  1  0.20368500  0.70363300  0.59275500  1.0
  Co  Co3  1  0.50000100  0.50000000  0.00000000  1.0
  O  O4  1  0.35281300  0.10801200  0.29432400  1.0
  O  O5  1  0.64718700  0.89198800  0.70567700  1.0
  O  O6  1  0.64717400  0.40233400  0.70567800  1.0
  O  O7  1  0.35282700  0.59766600  0.29432300  1.0
  O  O8  1  0.00000000  0.50000000  0.00000000  1.0
