# generated using pymatgen
data_BaNd2CuO5
_symmetry_space_group_name_H-M   'P 1'
_cell_length_a   5.88366500
_cell_length_b   6.76579000
_cell_length_c   6.76579000
_cell_angle_alpha   90.00000000
_cell_angle_beta   90.00000000
_cell_angle_gamma   90.00000000
_symmetry_Int_Tables_number   1
_chemical_formula_structural   BaNd2CuO5
_chemical_formula_sum   'Ba2 Nd4 Cu2 O10'
_cell_volume   269.33014495
_cell_formula_units_Z   2
loop_
 _symmetry_equiv_pos_site_id
 _symmetry_equiv_pos_as_xyz
  1  'x, y, z'
loop_
 _atom_site_type_symbol
 _atom_site_label
 _atom_site_symmetry_multiplicity
 _atom_site_fract_x
 _atom_site_fract_y
 _atom_site_fract_z
 _atom_site_occupancy
  Ba  Ba0  1  1.00000000  0.50000000  0.50000000  1.0
  Ba  Ba1  1  0.00000000  0.00000000  0.00000000  1.0
  Nd  Nd2  1  0.50000000  0.32677900  0.82677900  1.0
  Nd  Nd3  1  0.50000000  0.82677900  0.67322100  1.0
  Nd  Nd4  1  0.50000000  0.17322100  0.32677900  1.0
  Nd  Nd5  1  0.50000000  0.67322100  0.17322100  1.0
  Cu  Cu6  1  1.00000000  1.00000000  0.50000000  1.0
  Cu  Cu7  1  1.00000000  0.50000000  0.00000000  1.0
  O  O8  1  0.24333300  0.13893400  0.63893400  1.0
  O  O9  1  0.24333300  0.86106600  0.36106600  1.0
  O  O10  1  0.24333300  0.36106600  0.13893400  1.0
  O  O11  1  0.24333300  0.63893400  0.86106600  1.0
  O  O12  1  0.75666700  0.13893400  0.63893400  1.0
  O  O13  1  0.75666700  0.63893400  0.86106600  1.0
  O  O14  1  0.75666700  0.36106600  0.13893400  1.0
  O  O15  1  0.75666700  0.86106600  0.36106600  1.0
  O  O16  1  0.50000000  0.00000000  0.00000000  1.0
  O  O17  1  0.50000000  0.50000000  0.50000000  1.0
