# generated using pymatgen
data_BaP2
_symmetry_space_group_name_H-M   'P 1'
_cell_length_a   6.44397500
_cell_length_b   6.49870206
_cell_length_c   12.27642300
_cell_angle_alpha   90.00000000
_cell_angle_beta   90.00000000
_cell_angle_gamma   105.94137281
_symmetry_Int_Tables_number   1
_chemical_formula_structural   BaP2
_chemical_formula_sum   'Ba6 P12'
_cell_volume   494.33474268
_cell_formula_units_Z   6
loop_
 _symmetry_equiv_pos_site_id
 _symmetry_equiv_pos_as_xyz
  1  'x, y, z'
loop_
 _atom_site_type_symbol
 _atom_site_label
 _atom_site_symmetry_multiplicity
 _atom_site_fract_x
 _atom_site_fract_y
 _atom_site_fract_z
 _atom_site_occupancy
  Ba  Ba0  1  0.89584100  0.66789700  0.83805400  1.0
  Ba  Ba1  1  0.60415900  0.83210300  0.33805400  1.0
  Ba  Ba2  1  0.10415900  0.33210300  0.16194600  1.0
  Ba  Ba3  1  0.39584100  0.16789700  0.66194600  1.0
  Ba  Ba4  1  1.00000000  0.50000000  0.50000000  1.0
  Ba  Ba5  1  0.50000000  1.00000000  0.00000000  1.0
  P  P6  1  0.62879300  0.69627100  0.60749700  1.0
  P  P7  1  0.87120700  0.80372900  0.10749700  1.0
  P  P8  1  0.37120700  0.30372900  0.39250300  1.0
  P  P9  1  0.12879300  0.19627100  0.89250300  1.0
  P  P10  1  0.35308100  0.53252400  0.87267200  1.0
  P  P11  1  0.14691900  0.96747600  0.37267200  1.0
  P  P12  1  0.64691900  0.46747600  0.12732800  1.0
  P  P13  1  0.85308100  0.03252400  0.62732800  1.0
  P  P14  1  0.33238000  0.65285800  0.70506700  1.0
  P  P15  1  0.16762000  0.84714200  0.20506700  1.0
  P  P16  1  0.66762000  0.34714200  0.29493300  1.0
  P  P17  1  0.83238000  0.15285800  0.79493300  1.0
