# generated using pymatgen
data_BaSrYCu3PbO7
_symmetry_space_group_name_H-M   'P 1'
_cell_length_a   3.84960300
_cell_length_b   3.86558835
_cell_length_c   14.30577885
_cell_angle_alpha   97.14120095
_cell_angle_beta   97.73243550
_cell_angle_gamma   90.00000000
_symmetry_Int_Tables_number   1
_chemical_formula_structural   BaSrYCu3PbO7
_chemical_formula_sum   'Ba1 Sr1 Y1 Cu3 Pb1 O7'
_cell_volume   209.28164508
_cell_formula_units_Z   1
loop_
 _symmetry_equiv_pos_site_id
 _symmetry_equiv_pos_as_xyz
  1  'x, y, z'
loop_
 _atom_site_type_symbol
 _atom_site_label
 _atom_site_symmetry_multiplicity
 _atom_site_fract_x
 _atom_site_fract_y
 _atom_site_fract_z
 _atom_site_occupancy
  Ba  Ba0  1  0.68867900  0.67869000  0.37735700  1.0
  Sr  Sr1  1  0.43145000  0.42870200  0.86290000  1.0
  Y  Y2  1  0.55724500  0.55818700  0.11449000  1.0
  Cu  Cu3  1  0.99730900  0.99876200  0.99461800  1.0
  Cu  Cu4  1  0.84963100  0.81543700  0.69926200  1.0
  Cu  Cu5  1  0.11535100  0.11352400  0.23070200  1.0
  Pb  Pb6  1  0.28735800  0.28485000  0.57471600  1.0
  O  O7  1  0.20861300  0.19208300  0.41722700  1.0
  O  O8  1  0.91344400  0.93597600  0.82688800  1.0
  O  O9  1  0.50452100  0.00702000  0.00904200  1.0
  O  O10  1  0.00429500  0.50548000  0.00859000  1.0
  O  O11  1  0.10803500  0.60694500  0.21607100  1.0
  O  O12  1  0.60785400  0.10634400  0.21570900  1.0
  O  O13  1  0.78421500  0.68300200  0.56843000  1.0
