# generated using pymatgen
data_BaSr2Y2Cu2PtO10
_symmetry_space_group_name_H-M   'P 1'
_cell_length_a   5.73649000
_cell_length_b   6.83996470
_cell_length_c   7.46295072
_cell_angle_alpha   104.02255241
_cell_angle_beta   90.00000000
_cell_angle_gamma   114.79268793
_symmetry_Int_Tables_number   1
_chemical_formula_structural   BaSr2Y2Cu2PtO10
_chemical_formula_sum   'Ba1 Sr2 Y2 Cu2 Pt1 O10'
_cell_volume   256.19340944
_cell_formula_units_Z   1
loop_
 _symmetry_equiv_pos_site_id
 _symmetry_equiv_pos_as_xyz
  1  'x, y, z'
loop_
 _atom_site_type_symbol
 _atom_site_label
 _atom_site_symmetry_multiplicity
 _atom_site_fract_x
 _atom_site_fract_y
 _atom_site_fract_z
 _atom_site_occupancy
  Ba  Ba0  1  0.35083900  0.70167800  0.97257700  1.0
  Sr  Sr1  1  0.50047700  0.00095400  0.50039700  1.0
  Sr  Sr2  1  0.65012900  0.30025800  0.02497800  1.0
  Y  Y3  1  0.18830500  0.37661000  0.37310800  1.0
  Y  Y4  1  0.81099500  0.62199000  0.62700300  1.0
  Cu  Cu5  1  0.91313800  0.82627600  0.30215800  1.0
  Cu  Cu6  1  0.08652200  0.17304400  0.69726200  1.0
  Pt  Pt7  1  0.99898300  0.99796600  0.00051800  1.0
  O  O8  1  0.25103300  0.04146400  0.21831500  1.0
  O  O9  1  0.79043100  0.04146400  0.21831500  1.0
  O  O10  1  0.75230800  0.96569300  0.78346600  1.0
  O  O11  1  0.21338500  0.96569300  0.78346600  1.0
  O  O12  1  0.16648400  0.33296800  0.04761000  1.0
  O  O13  1  0.82742500  0.65485000  0.95275700  1.0
  O  O14  1  0.58763800  0.64820100  0.38065400  1.0
  O  O15  1  0.06056300  0.64820100  0.38065400  1.0
  O  O16  1  0.41277900  0.35134600  0.61838100  1.0
  O  O17  1  0.93856700  0.35134600  0.61838100  1.0
