# generated using pymatgen
data_BaU2O7
_symmetry_space_group_name_H-M   'P 1'
_cell_length_a   7.20311000
_cell_length_b   7.96600129
_cell_length_c   7.20311000
_cell_angle_alpha   116.87951235
_cell_angle_beta   89.99999999
_cell_angle_gamma   116.87951235
_symmetry_Int_Tables_number   1
_chemical_formula_structural   BaU2O7
_chemical_formula_sum   'Ba2 U4 O14'
_cell_volume   317.79078088
_cell_formula_units_Z   2
loop_
 _symmetry_equiv_pos_site_id
 _symmetry_equiv_pos_as_xyz
  1  'x, y, z'
loop_
 _atom_site_type_symbol
 _atom_site_label
 _atom_site_symmetry_multiplicity
 _atom_site_fract_x
 _atom_site_fract_y
 _atom_site_fract_z
 _atom_site_occupancy
  Ba  Ba0  1  0.00000000  0.00000000  0.00000000  1.0
  Ba  Ba1  1  0.25000000  0.50000000  0.75000000  1.0
  U  U2  1  0.12500000  0.75000000  0.37500000  1.0
  U  U3  1  0.62500000  0.25000000  0.87500000  1.0
  U  U4  1  0.62500000  0.25000000  0.37500000  1.0
  U  U5  1  0.62500000  0.75000000  0.37500000  1.0
  O  O6  1  0.75000000  0.50000000  0.25000000  1.0
  O  O7  1  0.50000000  0.00000000  0.50000000  1.0
  O  O8  1  0.28209500  0.56419000  0.28209500  1.0
  O  O9  1  0.53209500  0.06419000  0.03209500  1.0
  O  O10  1  0.96790500  0.93581000  0.46790500  1.0
  O  O11  1  0.71790500  0.43581000  0.71790500  1.0
  O  O12  1  0.12500000  0.75000000  0.11141500  1.0
  O  O13  1  0.88858500  0.25000000  0.87500000  1.0
  O  O14  1  0.36141500  0.25000000  0.37500000  1.0
  O  O15  1  0.62500000  0.75000000  0.63858500  1.0
  O  O16  1  0.12500000  0.75000000  0.63858500  1.0
  O  O17  1  0.36141500  0.25000000  0.87500000  1.0
  O  O18  1  0.88858500  0.25000000  0.37500000  1.0
  O  O19  1  0.62500000  0.75000000  0.11141500  1.0
