# generated using pymatgen
data_BaUTe4
_symmetry_space_group_name_H-M   'P 1'
_cell_length_a   6.30754800
_cell_length_b   8.82871660
_cell_length_c   8.83535867
_cell_angle_alpha   73.77829322
_cell_angle_beta   69.08704772
_cell_angle_gamma   69.07057542
_symmetry_Int_Tables_number   1
_chemical_formula_structural   BaUTe4
_chemical_formula_sum   'Ba2 U2 Te8'
_cell_volume   422.73150276
_cell_formula_units_Z   2
loop_
 _symmetry_equiv_pos_site_id
 _symmetry_equiv_pos_as_xyz
  1  'x, y, z'
loop_
 _atom_site_type_symbol
 _atom_site_label
 _atom_site_symmetry_multiplicity
 _atom_site_fract_x
 _atom_site_fract_y
 _atom_site_fract_z
 _atom_site_occupancy
  Ba  Ba0  1  0.89952500  0.89545400  0.30549600  1.0
  Ba  Ba1  1  0.10047500  0.10454600  0.69450400  1.0
  U  U2  1  0.63887700  0.49709600  0.22515000  1.0
  U  U3  1  0.36112300  0.50290400  0.77485000  1.0
  Te  Te4  1  0.60657500  0.24477700  0.04309800  1.0
  Te  Te5  1  0.89445000  0.75522300  0.95690200  1.0
  Te  Te6  1  0.39342500  0.75522300  0.95690200  1.0
  Te  Te7  1  0.10555000  0.24477700  0.04309800  1.0
  Te  Te8  1  0.10046500  0.45762000  0.34145000  1.0
  Te  Te9  1  0.89953500  0.54238000  0.65855000  1.0
  Te  Te10  1  0.60982500  0.22989200  0.55045800  1.0
  Te  Te11  1  0.39017500  0.77010800  0.44954200  1.0
