# generated using pymatgen
data_BaYBr5
_symmetry_space_group_name_H-M   'P 1'
_cell_length_a   5.94612600
_cell_length_b   7.25277657
_cell_length_c   10.63141163
_cell_angle_alpha   89.04764845
_cell_angle_beta   73.76074648
_cell_angle_gamma   86.59262338
_symmetry_Int_Tables_number   1
_chemical_formula_structural   BaYBr5
_chemical_formula_sum   'Ba2 Y2 Br10'
_cell_volume   439.41859224
_cell_formula_units_Z   2
loop_
 _symmetry_equiv_pos_site_id
 _symmetry_equiv_pos_as_xyz
  1  'x, y, z'
loop_
 _atom_site_type_symbol
 _atom_site_label
 _atom_site_symmetry_multiplicity
 _atom_site_fract_x
 _atom_site_fract_y
 _atom_site_fract_z
 _atom_site_occupancy
  Ba  Ba0  1  0.67201500  0.75000000  0.65597000  1.0
  Ba  Ba1  1  0.32798500  0.25000000  0.34403000  1.0
  Y  Y2  1  0.92330900  0.75000000  0.15338200  1.0
  Y  Y3  1  0.07669100  0.25000000  0.84661800  1.0
  Br  Br4  1  0.78868900  0.59643400  0.93656500  1.0
  Br  Br5  1  0.72525400  0.09643400  0.06343500  1.0
  Br  Br6  1  0.18147000  0.99818100  0.62345900  1.0
  Br  Br7  1  0.37138400  0.75000000  0.25723100  1.0
  Br  Br8  1  0.19507100  0.50181900  0.62345900  1.0
  Br  Br9  1  0.80492900  0.49818100  0.37654100  1.0
  Br  Br10  1  0.62861500  0.25000000  0.74277000  1.0
  Br  Br11  1  0.81853000  0.00181900  0.37654100  1.0
  Br  Br12  1  0.27474600  0.90356600  0.93656500  1.0
  Br  Br13  1  0.21131100  0.40356600  0.06343500  1.0
