# generated using pymatgen
data_BaYCrCuO5
_symmetry_space_group_name_H-M   'P 1'
_cell_length_a   3.91618009
_cell_length_b   3.91612609
_cell_length_c   7.77018100
_cell_angle_alpha   89.99986759
_cell_angle_beta   89.99861184
_cell_angle_gamma   89.97609355
_symmetry_Int_Tables_number   1
_chemical_formula_structural   BaYCrCuO5
_chemical_formula_sum   'Ba1 Y1 Cr1 Cu1 O5'
_cell_volume   119.16546699
_cell_formula_units_Z   1
loop_
 _symmetry_equiv_pos_site_id
 _symmetry_equiv_pos_as_xyz
  1  'x, y, z'
loop_
 _atom_site_type_symbol
 _atom_site_label
 _atom_site_symmetry_multiplicity
 _atom_site_fract_x
 _atom_site_fract_y
 _atom_site_fract_z
 _atom_site_occupancy
  Ba  Ba0  1  0.00000400  0.00000300  0.01471600  1.0
  Y  Y1  1  0.00000500  0.00000100  0.53736100  1.0
  Cr  Cr2  1  0.50000800  0.49999600  0.30043000  1.0
  Cu  Cu3  1  0.50002800  0.50001300  0.75199300  1.0
  O  O4  1  0.50002000  0.00000000  0.35456200  1.0
  O  O5  1  0.00002000  0.50000100  0.35456100  1.0
  O  O6  1  0.49999600  0.99998600  0.72130000  1.0
  O  O7  1  0.99991300  0.50000300  0.72130200  1.0
  O  O8  1  0.50001400  0.50000400  0.05585700  1.0
