# generated using pymatgen
data_BaYMnCoO5
_symmetry_space_group_name_H-M   'P 1'
_cell_length_a   5.59061021
_cell_length_b   5.59236369
_cell_length_c   7.77061812
_cell_angle_alpha   89.99373488
_cell_angle_beta   89.97255143
_cell_angle_gamma   91.11072454
_symmetry_Int_Tables_number   1
_chemical_formula_structural   BaYMnCoO5
_chemical_formula_sum   'Ba2 Y2 Mn2 Co2 O10'
_cell_volume   242.90056395
_cell_formula_units_Z   2
loop_
 _symmetry_equiv_pos_site_id
 _symmetry_equiv_pos_as_xyz
  1  'x, y, z'
loop_
 _atom_site_type_symbol
 _atom_site_label
 _atom_site_symmetry_multiplicity
 _atom_site_fract_x
 _atom_site_fract_y
 _atom_site_fract_z
 _atom_site_occupancy
  Ba  Ba0  1  0.00249600  0.99987400  0.01005400  1.0
  Ba  Ba1  1  0.49968300  0.50280900  0.00931000  1.0
  Y  Y2  1  0.00118000  0.99916000  0.49880900  1.0
  Y  Y3  1  0.49914100  0.50102800  0.49873500  1.0
  Mn  Mn4  1  0.50005400  0.99997100  0.72557600  1.0
  Mn  Mn5  1  0.99946100  0.49955200  0.74539100  1.0
  Co  Co6  1  0.50590000  0.00593700  0.25650200  1.0
  Co  Co7  1  0.99959300  0.49961900  0.26270500  1.0
  O  O8  1  0.99911100  0.49920200  0.01157700  1.0
  O  O9  1  0.49820100  0.99835200  0.99777800  1.0
  O  O10  1  0.25704800  0.24111300  0.31634000  1.0
  O  O11  1  0.74144100  0.75716400  0.31643800  1.0
  O  O12  1  0.76546800  0.26548500  0.31642300  1.0
  O  O13  1  0.23174700  0.73146200  0.31586600  1.0
  O  O14  1  0.25961100  0.24024600  0.68473700  1.0
  O  O15  1  0.74018900  0.75943100  0.68480300  1.0
  O  O16  1  0.74144500  0.24141200  0.67452100  1.0
  O  O17  1  0.25823100  0.75818300  0.67443900  1.0
