# generated using pymatgen
data_BaZn2
_symmetry_space_group_name_H-M   'P 1'
_cell_length_a   5.04614400
_cell_length_b   6.20034920
_cell_length_c   6.20034920
_cell_angle_alpha   78.73797715
_cell_angle_beta   65.98823765
_cell_angle_gamma   65.98823765
_symmetry_Int_Tables_number   1
_chemical_formula_structural   BaZn2
_chemical_formula_sum   'Ba2 Zn4'
_cell_volume   161.76978315
_cell_formula_units_Z   2
loop_
 _symmetry_equiv_pos_site_id
 _symmetry_equiv_pos_as_xyz
  1  'x, y, z'
loop_
 _atom_site_type_symbol
 _atom_site_label
 _atom_site_symmetry_multiplicity
 _atom_site_fract_x
 _atom_site_fract_y
 _atom_site_fract_z
 _atom_site_occupancy
  Ba  Ba0  1  0.75000000  0.80737800  0.69262200  1.0
  Ba  Ba1  1  0.25000000  0.19262200  0.30737800  1.0
  Zn  Zn2  1  0.92243600  0.23769200  0.91743500  1.0
  Zn  Zn3  1  0.07756400  0.76230800  0.08256500  1.0
  Zn  Zn4  1  0.42243700  0.41743400  0.73769200  1.0
  Zn  Zn5  1  0.57756300  0.58256600  0.26230800  1.0
