# generated using pymatgen
data_BaZrSe3
_symmetry_space_group_name_H-M   'P 1'
_cell_length_a   6.44910600
_cell_length_b   7.26262000
_cell_length_c   7.26262050
_cell_angle_alpha   60.00000230
_cell_angle_beta   90.00000000
_cell_angle_gamma   90.00000000
_symmetry_Int_Tables_number   1
_chemical_formula_structural   BaZrSe3
_chemical_formula_sum   'Ba2 Zr2 Se6'
_cell_volume   294.58920555
_cell_formula_units_Z   2
loop_
 _symmetry_equiv_pos_site_id
 _symmetry_equiv_pos_as_xyz
  1  'x, y, z'
loop_
 _atom_site_type_symbol
 _atom_site_label
 _atom_site_symmetry_multiplicity
 _atom_site_fract_x
 _atom_site_fract_y
 _atom_site_fract_z
 _atom_site_occupancy
  Ba  Ba0  1  0.25000000  0.33333333  0.33333333  1.0
  Ba  Ba1  1  0.75000000  0.66666667  0.66666667  1.0
  Zr  Zr2  1  0.50000000  0.00000000  0.00000000  1.0
  Zr  Zr3  1  0.00000000  0.00000000  0.00000000  1.0
  Se  Se4  1  0.75000000  0.17257300  0.65485400  1.0
  Se  Se5  1  0.75000000  0.65485300  0.17257400  1.0
  Se  Se6  1  0.75000000  0.17257300  0.17257400  1.0
  Se  Se7  1  0.25000000  0.82742700  0.34514600  1.0
  Se  Se8  1  0.25000000  0.34514700  0.82742600  1.0
  Se  Se9  1  0.25000000  0.82742700  0.82742600  1.0
