# generated using pymatgen
data_Be2TlF5
_symmetry_space_group_name_H-M   'P 1'
_cell_length_a   4.71503200
_cell_length_b   4.72336259
_cell_length_c   12.80519854
_cell_angle_alpha   91.09836717
_cell_angle_beta   90.00000000
_cell_angle_gamma   119.94167445
_symmetry_Int_Tables_number   1
_chemical_formula_structural   Be2TlF5
_chemical_formula_sum   'Be4 Tl2 F10'
_cell_volume   247.05948776
_cell_formula_units_Z   2
loop_
 _symmetry_equiv_pos_site_id
 _symmetry_equiv_pos_as_xyz
  1  'x, y, z'
loop_
 _atom_site_type_symbol
 _atom_site_label
 _atom_site_symmetry_multiplicity
 _atom_site_fract_x
 _atom_site_fract_y
 _atom_site_fract_z
 _atom_site_occupancy
  Be  Be0  1  0.30759000  0.66437300  0.29528500  1.0
  Be  Be1  1  0.64321700  0.33562700  0.20471500  1.0
  Be  Be2  1  0.69241000  0.33562700  0.70471500  1.0
  Be  Be3  1  0.35678300  0.66437300  0.79528500  1.0
  Tl  Tl4  1  0.00000000  0.00000000  0.50000000  1.0
  Tl  Tl5  1  0.00000000  0.00000000  0.00000000  1.0
  F  F6  1  0.57695800  0.00000000  0.25000000  1.0
  F  F7  1  0.03837500  0.38668500  0.73845500  1.0
  F  F8  1  0.34831000  0.38668500  0.23845500  1.0
  F  F9  1  0.96162500  0.61331500  0.26154500  1.0
  F  F10  1  0.65169000  0.61331500  0.76154500  1.0
  F  F11  1  0.32350800  0.65836900  0.91314900  1.0
  F  F12  1  0.66513900  0.34163100  0.58685100  1.0
  F  F13  1  0.67649200  0.34163100  0.08685100  1.0
  F  F14  1  0.33486100  0.65836900  0.41314900  1.0
  F  F15  1  0.42304200  0.00000000  0.75000000  1.0
