# generated using pymatgen
data_BeH2
_symmetry_space_group_name_H-M   'P 1'
_cell_length_a   4.04589400
_cell_length_b   6.17478619
_cell_length_c   6.17478619
_cell_angle_alpha   75.83109999
_cell_angle_beta   70.87597530
_cell_angle_gamma   70.87597530
_symmetry_Int_Tables_number   1
_chemical_formula_structural   BeH2
_chemical_formula_sum   'Be6 H12'
_cell_volume   136.06251438
_cell_formula_units_Z   6
loop_
 _symmetry_equiv_pos_site_id
 _symmetry_equiv_pos_as_xyz
  1  'x, y, z'
loop_
 _atom_site_type_symbol
 _atom_site_label
 _atom_site_symmetry_multiplicity
 _atom_site_fract_x
 _atom_site_fract_y
 _atom_site_fract_z
 _atom_site_occupancy
  Be  Be0  1  0.00000000  0.25000000  0.75000000  1.0
  Be  Be1  1  0.00000000  0.75000000  0.25000000  1.0
  Be  Be2  1  0.04706500  0.83216600  0.83216600  1.0
  Be  Be3  1  0.28860300  0.33216600  0.33216600  1.0
  Be  Be4  1  0.71139700  0.66783400  0.66783400  1.0
  Be  Be5  1  0.95293500  0.16783400  0.16783400  1.0
  H  H6  1  0.67753100  0.74199300  0.43573800  1.0
  H  H7  1  0.67753000  0.43573800  0.74199400  1.0
  H  H8  1  0.14473700  0.93573800  0.24199400  1.0
  H  H9  1  0.85526200  0.75800700  0.06426200  1.0
  H  H10  1  0.95376800  0.31574800  0.31574800  1.0
  H  H11  1  0.41473500  0.81574800  0.81574800  1.0
  H  H12  1  0.04623200  0.68425200  0.68425200  1.0
  H  H13  1  0.58526400  0.18425300  0.18425200  1.0
  H  H14  1  0.14473800  0.24199300  0.93573800  1.0
  H  H15  1  0.85526300  0.06426200  0.75800600  1.0
  H  H16  1  0.32247000  0.56426200  0.25800600  1.0
  H  H17  1  0.32246900  0.25800700  0.56426200  1.0
