# generated using pymatgen
data_BeI2
_symmetry_space_group_name_H-M   'P 1'
_cell_length_a   6.14326000
_cell_length_b   6.50542400
_cell_length_c   7.55410303
_cell_angle_alpha   115.50493133
_cell_angle_beta   113.99252373
_cell_angle_gamma   89.99999999
_symmetry_Int_Tables_number   1
_chemical_formula_structural   BeI2
_chemical_formula_sum   'Be2 I4'
_cell_volume   243.25694475
_cell_formula_units_Z   2
loop_
 _symmetry_equiv_pos_site_id
 _symmetry_equiv_pos_as_xyz
  1  'x, y, z'
loop_
 _atom_site_type_symbol
 _atom_site_label
 _atom_site_symmetry_multiplicity
 _atom_site_fract_x
 _atom_site_fract_y
 _atom_site_fract_z
 _atom_site_occupancy
  Be  Be0  1  0.75000000  0.00000000  0.00000000  1.0
  Be  Be1  1  0.25000000  0.00000000  0.00000000  1.0
  I  I2  1  0.89059700  0.09558300  0.78119400  1.0
  I  I3  1  0.39059700  0.68561100  0.78119400  1.0
  I  I4  1  0.60940300  0.31438900  0.21880600  1.0
  I  I5  1  0.10940300  0.90441700  0.21880600  1.0
