# generated using pymatgen
data_Bi4RuBr2
_symmetry_space_group_name_H-M   'P 1'
_cell_length_a   6.87944800
_cell_length_b   8.89371078
_cell_length_c   9.11778001
_cell_angle_alpha   75.75874702
_cell_angle_beta   67.83627345
_cell_angle_gamma   67.24700619
_symmetry_Int_Tables_number   1
_chemical_formula_structural   Bi4RuBr2
_chemical_formula_sum   'Bi8 Ru2 Br4'
_cell_volume   473.15176917
_cell_formula_units_Z   2
loop_
 _symmetry_equiv_pos_site_id
 _symmetry_equiv_pos_as_xyz
  1  'x, y, z'
loop_
 _atom_site_type_symbol
 _atom_site_label
 _atom_site_symmetry_multiplicity
 _atom_site_fract_x
 _atom_site_fract_y
 _atom_site_fract_z
 _atom_site_occupancy
  Bi  Bi0  1  0.44543400  0.74122800  0.36790400  1.0
  Bi  Bi1  1  0.55456600  0.25877200  0.63209600  1.0
  Bi  Bi2  1  0.33640000  0.60752900  0.71967100  1.0
  Bi  Bi3  1  0.66360000  0.39247100  0.28032900  1.0
  Bi  Bi4  1  0.82818700  0.77478900  0.56883700  1.0
  Bi  Bi5  1  0.17181300  0.22521100  0.43116300  1.0
  Bi  Bi6  1  0.08613200  0.60491100  0.22282500  1.0
  Bi  Bi7  1  0.91386800  0.39508900  0.77717500  1.0
  Ru  Ru8  1  0.79097400  0.50000000  0.50000000  1.0
  Ru  Ru9  1  0.20902600  0.50000000  0.50000000  1.0
  Br  Br10  1  0.89427000  0.96875800  0.24270200  1.0
  Br  Br11  1  0.10573000  0.03124200  0.75729800  1.0
  Br  Br12  1  0.67831800  0.71329500  0.93006900  1.0
  Br  Br13  1  0.32168200  0.28670500  0.06993100  1.0
