# generated using pymatgen
data_Bi4Te3
_symmetry_space_group_name_H-M   'P 1'
_cell_length_a   4.51000310
_cell_length_b   4.51000310
_cell_length_c   14.47415103
_cell_angle_alpha   81.03709061
_cell_angle_beta   81.03709061
_cell_angle_gamma   60.00001319
_symmetry_Int_Tables_number   1
_chemical_formula_structural   Bi4Te3
_chemical_formula_sum   'Bi4 Te3'
_cell_volume   250.80358969
_cell_formula_units_Z   1
loop_
 _symmetry_equiv_pos_site_id
 _symmetry_equiv_pos_as_xyz
  1  'x, y, z'
loop_
 _atom_site_type_symbol
 _atom_site_label
 _atom_site_symmetry_multiplicity
 _atom_site_fract_x
 _atom_site_fract_y
 _atom_site_fract_z
 _atom_site_occupancy
  Bi  Bi0  1  0.28612900  0.28612900  0.14161300  1.0
  Bi  Bi1  1  0.71387100  0.71387100  0.85838700  1.0
  Bi  Bi2  1  0.14719500  0.14719500  0.55841500  1.0
  Bi  Bi3  1  0.85280500  0.85280500  0.44158500  1.0
  Te  Te4  1  0.00000000  0.00000000  0.00000000  1.0
  Te  Te5  1  0.57954000  0.57954000  0.26138000  1.0
  Te  Te6  1  0.42046000  0.42046000  0.73862000  1.0
