# generated using pymatgen
data_BiI3
_symmetry_space_group_name_H-M   'P 1'
_cell_length_a   7.82922600
_cell_length_b   7.82922634
_cell_length_c   7.91867200
_cell_angle_alpha   90.00000000
_cell_angle_beta   90.00000000
_cell_angle_gamma   119.99999856
_symmetry_Int_Tables_number   1
_chemical_formula_structural   BiI3
_chemical_formula_sum   'Bi2 I6'
_cell_volume   420.35931010
_cell_formula_units_Z   2
loop_
 _symmetry_equiv_pos_site_id
 _symmetry_equiv_pos_as_xyz
  1  'x, y, z'
loop_
 _atom_site_type_symbol
 _atom_site_label
 _atom_site_symmetry_multiplicity
 _atom_site_fract_x
 _atom_site_fract_y
 _atom_site_fract_z
 _atom_site_occupancy
  Bi  Bi0  1  0.33333333  0.66666667  1.00000000  1.0
  Bi  Bi1  1  0.66666667  0.33333333  1.00000000  1.0
  I  I2  1  0.64462600  0.64462600  0.23045700  1.0
  I  I3  1  0.00000000  0.35537400  0.23045700  1.0
  I  I4  1  0.00000000  0.64462600  0.76954300  1.0
  I  I5  1  0.35537400  1.00000000  0.23045700  1.0
  I  I6  1  0.35537400  0.35537400  0.76954300  1.0
  I  I7  1  0.64462600  0.00000000  0.76954300  1.0
