# generated using pymatgen
data_BMo
_symmetry_space_group_name_H-M   'P 1'
_cell_length_a   3.13188000
_cell_length_b   3.13188000
_cell_length_c   8.81118730
_cell_angle_alpha   100.23708869
_cell_angle_beta   100.23708869
_cell_angle_gamma   89.99999999
_symmetry_Int_Tables_number   1
_chemical_formula_structural   BMo
_chemical_formula_sum   'B4 Mo4'
_cell_volume   83.65175142
_cell_formula_units_Z   4
loop_
 _symmetry_equiv_pos_site_id
 _symmetry_equiv_pos_as_xyz
  1  'x, y, z'
loop_
 _atom_site_type_symbol
 _atom_site_label
 _atom_site_symmetry_multiplicity
 _atom_site_fract_x
 _atom_site_fract_y
 _atom_site_fract_z
 _atom_site_occupancy
  B  B0  1  0.59475500  0.09475500  0.18951000  1.0
  B  B1  1  0.84475500  0.84475500  0.68951000  1.0
  B  B2  1  0.15524500  0.15524500  0.31049000  1.0
  B  B3  1  0.90524500  0.40524500  0.81049000  1.0
  Mo  Mo4  1  0.44701800  0.94701800  0.89403600  1.0
  Mo  Mo5  1  0.69701800  0.69701800  0.39403600  1.0
  Mo  Mo6  1  0.30298200  0.30298200  0.60596400  1.0
  Mo  Mo7  1  0.05298200  0.55298200  0.10596400  1.0
