# generated using pymatgen
data_Ca(InCu)6
_symmetry_space_group_name_H-M   'P 1'
_cell_length_a   5.56728400
_cell_length_b   7.11379301
_cell_length_c   7.11379301
_cell_angle_alpha   81.63816091
_cell_angle_beta   66.96445712
_cell_angle_gamma   66.96445712
_symmetry_Int_Tables_number   1
_chemical_formula_structural   Ca(InCu)6
_chemical_formula_sum   'Ca1 In6 Cu6'
_cell_volume   238.58940655
_cell_formula_units_Z   1
loop_
 _symmetry_equiv_pos_site_id
 _symmetry_equiv_pos_as_xyz
  1  'x, y, z'
loop_
 _atom_site_type_symbol
 _atom_site_label
 _atom_site_symmetry_multiplicity
 _atom_site_fract_x
 _atom_site_fract_y
 _atom_site_fract_z
 _atom_site_occupancy
  Ca  Ca0  1  0.00000000  0.00000000  0.00000000  1.0
  In  In1  1  0.66150800  0.33849200  0.33849200  1.0
  In  In2  1  0.33849200  0.66150800  0.66150800  1.0
  In  In3  1  1.00000000  0.65748700  0.34251300  1.0
  In  In4  1  1.00000000  0.34251300  0.65748700  1.0
  In  In5  1  0.50000000  0.18425200  0.81574800  1.0
  In  In6  1  0.50000000  0.81574800  0.18425200  1.0
  Cu  Cu7  1  0.50000000  0.50000000  0.00000000  1.0
  Cu  Cu8  1  1.00000000  0.50000000  0.00000000  1.0
  Cu  Cu9  1  0.50000000  0.00000000  0.50000000  1.0
  Cu  Cu10  1  1.00000000  0.00000000  0.50000000  1.0
  Cu  Cu11  1  0.73649700  0.76350300  0.76350300  1.0
  Cu  Cu12  1  0.26350300  0.23649700  0.23649700  1.0
