# generated using pymatgen
data_Ca(NdS2)2
_symmetry_space_group_name_H-M   'P 1'
_cell_length_a   7.43120282
_cell_length_b   7.43120282
_cell_length_c   7.43120282
_cell_angle_alpha   109.12765926
_cell_angle_beta   109.64327397
_cell_angle_gamma   109.64327397
_symmetry_Int_Tables_number   1
_chemical_formula_structural   Ca(NdS2)2
_chemical_formula_sum   'Ca2 Nd4 S8'
_cell_volume   315.89572603
_cell_formula_units_Z   2
loop_
 _symmetry_equiv_pos_site_id
 _symmetry_equiv_pos_as_xyz
  1  'x, y, z'
loop_
 _atom_site_type_symbol
 _atom_site_label
 _atom_site_symmetry_multiplicity
 _atom_site_fract_x
 _atom_site_fract_y
 _atom_site_fract_z
 _atom_site_occupancy
  Ca  Ca0  1  1.00000000  0.50000000  0.50000000  1.0
  Ca  Ca1  1  0.50000000  0.25000000  0.75000000  1.0
  Nd  Nd2  1  0.87884900  0.87500000  0.25384900  1.0
  Nd  Nd3  1  0.62115100  0.74615100  0.62500000  1.0
  Nd  Nd4  1  0.12115100  0.37500000  0.99615100  1.0
  Nd  Nd5  1  0.37884900  0.00384900  0.12500000  1.0
  S  S6  1  0.10440800  0.98262000  0.73049000  1.0
  S  S7  1  0.60440800  0.48049000  0.23262000  1.0
  S  S8  1  0.25213100  0.26951000  0.37391900  1.0
  S  S9  1  0.39559200  0.62821300  0.87608200  1.0
  S  S10  1  0.75213100  0.12391900  0.51951000  1.0
  S  S11  1  0.24786900  0.76737900  0.37178700  1.0
  S  S12  1  0.74786900  0.12178700  0.01737900  1.0
  S  S13  1  0.89559200  0.62608200  0.87821300  1.0
