# generated using pymatgen
data_Ca(SnO2)2
_symmetry_space_group_name_H-M   'P 1'
_cell_length_a   6.35571200
_cell_length_b   6.77816991
_cell_length_c   6.77816991
_cell_angle_alpha   67.83921126
_cell_angle_beta   62.04117794
_cell_angle_gamma   62.04117794
_symmetry_Int_Tables_number   1
_chemical_formula_structural   Ca(SnO2)2
_chemical_formula_sum   'Ca2 Sn4 O8'
_cell_volume   223.13498788
_cell_formula_units_Z   2
loop_
 _symmetry_equiv_pos_site_id
 _symmetry_equiv_pos_as_xyz
  1  'x, y, z'
loop_
 _atom_site_type_symbol
 _atom_site_label
 _atom_site_symmetry_multiplicity
 _atom_site_fract_x
 _atom_site_fract_y
 _atom_site_fract_z
 _atom_site_occupancy
  Ca  Ca0  1  0.50000000  0.50000000  0.50000000  1.0
  Ca  Ca1  1  0.50000000  0.00000000  0.00000000  1.0
  Sn  Sn2  1  0.87348800  0.87651200  0.37651200  1.0
  Sn  Sn3  1  0.12651200  0.12348800  0.62348800  1.0
  Sn  Sn4  1  0.50000000  0.50000000  0.00000000  1.0
  Sn  Sn5  1  1.00000000  0.50000000  0.00000000  1.0
  O  O6  1  0.72194500  0.27004400  0.77004400  1.0
  O  O7  1  0.25188700  0.68217300  0.81405300  1.0
  O  O8  1  0.23796700  0.27004400  0.77004400  1.0
  O  O9  1  0.25188800  0.31405300  0.18217200  1.0
  O  O10  1  0.74811200  0.68594700  0.81782800  1.0
  O  O11  1  0.74811300  0.31782700  0.18594700  1.0
  O  O12  1  0.76203300  0.72995600  0.22995600  1.0
  O  O13  1  0.27805500  0.72995600  0.22995600  1.0
