# generated using pymatgen
data_Ca2Al2O5
_symmetry_space_group_name_H-M   'P 1'
_cell_length_a   5.38245050
_cell_length_b   5.41640924
_cell_length_c   8.18092397
_cell_angle_alpha   108.76755444
_cell_angle_beta   108.63845170
_cell_angle_gamma   91.62163974
_symmetry_Int_Tables_number   1
_chemical_formula_structural   Ca2Al2O5
_chemical_formula_sum   'Ca4 Al4 O10'
_cell_volume   211.68112721
_cell_formula_units_Z   2
loop_
 _symmetry_equiv_pos_site_id
 _symmetry_equiv_pos_as_xyz
  1  'x, y, z'
loop_
 _atom_site_type_symbol
 _atom_site_label
 _atom_site_symmetry_multiplicity
 _atom_site_fract_x
 _atom_site_fract_y
 _atom_site_fract_z
 _atom_site_occupancy
  Ca  Ca0  1  0.63194600  0.58130500  0.21347000  1.0
  Ca  Ca1  1  0.36805400  0.41869500  0.78653000  1.0
  Ca  Ca2  1  0.08152500  0.13216400  0.21347000  1.0
  Ca  Ca3  1  0.91847500  0.86783600  0.78653000  1.0
  Al  Al4  1  0.50000000  0.00000000  0.00000000  1.0
  Al  Al5  1  0.00000000  0.50000000  1.00000000  1.0
  Al  Al6  1  0.67258700  0.17952500  0.50000000  1.0
  Al  Al7  1  0.32741300  0.82047500  0.50000000  1.0
  O  O8  1  0.26181100  0.76181000  0.02362100  1.0
  O  O9  1  0.24715500  0.24715500  0.99431000  1.0
  O  O10  1  0.75284500  0.75284500  0.00569000  1.0
  O  O11  1  0.73818900  0.23819000  0.97637900  1.0
  O  O12  1  0.66804800  0.18248400  0.28413500  1.0
  O  O13  1  0.33195200  0.81751600  0.71586500  1.0
  O  O14  1  0.11608800  0.60165100  0.28413500  1.0
  O  O15  1  0.88391200  0.39834900  0.71586500  1.0
  O  O16  1  0.66886300  0.84198600  0.50000000  1.0
  O  O17  1  0.33113700  0.15801400  0.50000000  1.0
