# generated using pymatgen
data_Ca2B5Os3
_symmetry_space_group_name_H-M   'P 1'
_cell_length_a   4.07167600
_cell_length_b   5.64423658
_cell_length_c   6.99881183
_cell_angle_alpha   77.20459740
_cell_angle_beta   73.08915027
_cell_angle_gamma   68.85722343
_symmetry_Int_Tables_number   1
_chemical_formula_structural   Ca2B5Os3
_chemical_formula_sum   'Ca2 B5 Os3'
_cell_volume   142.29955843
_cell_formula_units_Z   1
loop_
 _symmetry_equiv_pos_site_id
 _symmetry_equiv_pos_as_xyz
  1  'x, y, z'
loop_
 _atom_site_type_symbol
 _atom_site_label
 _atom_site_symmetry_multiplicity
 _atom_site_fract_x
 _atom_site_fract_y
 _atom_site_fract_z
 _atom_site_occupancy
  Ca  Ca0  1  0.91325900  0.95121600  0.74159100  1.0
  Ca  Ca1  1  0.60606600  0.04878400  0.25840900  1.0
  B  B2  1  0.26207900  1.00000000  1.00000000  1.0
  B  B3  1  0.53377200  0.55008100  0.37752400  1.0
  B  B4  1  0.46137700  0.44991900  0.62247600  1.0
  B  B5  1  0.62649000  0.48873700  0.81018300  1.0
  B  B6  1  0.92541000  0.51126300  0.18981700  1.0
  Os  Os7  1  0.99285200  0.50000000  0.50000000  1.0
  Os  Os8  1  0.12066400  0.36748500  0.90361000  1.0
  Os  Os9  1  0.39175900  0.63251500  0.09639000  1.0
