# generated using pymatgen
data_Ca2CoSbO6
_symmetry_space_group_name_H-M   'P 1'
_cell_length_a   5.50576500
_cell_length_b   5.66532098
_cell_length_c   7.68707100
_cell_angle_alpha   90.00000000
_cell_angle_beta   90.00000000
_cell_angle_gamma   89.91674628
_symmetry_Int_Tables_number   1
_chemical_formula_structural   Ca2CoSbO6
_chemical_formula_sum   'Ca4 Co2 Sb2 O12'
_cell_volume   239.77429640
_cell_formula_units_Z   2
loop_
 _symmetry_equiv_pos_site_id
 _symmetry_equiv_pos_as_xyz
  1  'x, y, z'
loop_
 _atom_site_type_symbol
 _atom_site_label
 _atom_site_symmetry_multiplicity
 _atom_site_fract_x
 _atom_site_fract_y
 _atom_site_fract_z
 _atom_site_occupancy
  Ca  Ca0  1  0.48101300  0.43355700  0.25000000  1.0
  Ca  Ca1  1  0.51898700  0.56644300  0.75000000  1.0
  Ca  Ca2  1  0.00232100  0.95618100  0.25000000  1.0
  Ca  Ca3  1  0.99767900  0.04381900  0.75000000  1.0
  Co  Co4  1  0.50000000  1.00000000  0.50000000  1.0
  Co  Co5  1  0.50000000  0.00000000  1.00000000  1.0
  Sb  Sb6  1  0.00000000  0.50000000  0.50000000  1.0
  Sb  Sb7  1  0.00000000  0.50000000  0.00000000  1.0
  O  O8  1  0.70580300  0.30649400  0.54721500  1.0
  O  O9  1  0.81003400  0.79365700  0.95055200  1.0
  O  O10  1  0.29419700  0.69350600  0.04721500  1.0
  O  O11  1  0.18996600  0.20634300  0.45055200  1.0
  O  O12  1  0.81003400  0.79365700  0.54944800  1.0
  O  O13  1  0.18996600  0.20634300  0.04944800  1.0
  O  O14  1  0.10770300  0.46364700  0.75000000  1.0
  O  O15  1  0.70580300  0.30649400  0.95278500  1.0
  O  O16  1  0.57577100  0.02418200  0.25000000  1.0
  O  O17  1  0.29419700  0.69350600  0.45278500  1.0
  O  O18  1  0.89229700  0.53635300  0.25000000  1.0
  O  O19  1  0.42422900  0.97581800  0.75000000  1.0
