# generated using pymatgen
data_Ca2Cu(ClO)2
_symmetry_space_group_name_H-M   'P 1'
_cell_length_a   3.88024600
_cell_length_b   3.88024600
_cell_length_c   8.12907187
_cell_angle_alpha   103.80774691
_cell_angle_beta   103.80774691
_cell_angle_gamma   90.00000001
_symmetry_Int_Tables_number   1
_chemical_formula_structural   Ca2Cu(ClO)2
_chemical_formula_sum   'Ca2 Cu1 Cl2 O2'
_cell_volume   115.21141871
_cell_formula_units_Z   1
loop_
 _symmetry_equiv_pos_site_id
 _symmetry_equiv_pos_as_xyz
  1  'x, y, z'
loop_
 _atom_site_type_symbol
 _atom_site_label
 _atom_site_symmetry_multiplicity
 _atom_site_fract_x
 _atom_site_fract_y
 _atom_site_fract_z
 _atom_site_occupancy
  Ca  Ca0  1  0.39635300  0.39635300  0.79270600  1.0
  Ca  Ca1  1  0.60364700  0.60364700  0.20729400  1.0
  Cu  Cu2  1  0.00000000  0.00000000  0.00000000  1.0
  Cl  Cl3  1  0.18237700  0.18237700  0.36475400  1.0
  Cl  Cl4  1  0.81762300  0.81762300  0.63524600  1.0
  O  O5  1  1.00000000  0.50000000  0.00000000  1.0
  O  O6  1  0.50000000  0.00000000  0.00000000  1.0
