# generated using pymatgen
data_Ca2Mg
_symmetry_space_group_name_H-M   'P 1'
_cell_length_a   3.78126000
_cell_length_b   7.24374817
_cell_length_c   8.33131735
_cell_angle_alpha   105.40852964
_cell_angle_beta   90.00000000
_cell_angle_gamma   105.12950297
_symmetry_Int_Tables_number   1
_chemical_formula_structural   Ca2Mg
_chemical_formula_sum   'Ca4 Mg2'
_cell_volume   211.78061785
_cell_formula_units_Z   2
loop_
 _symmetry_equiv_pos_site_id
 _symmetry_equiv_pos_as_xyz
  1  'x, y, z'
loop_
 _atom_site_type_symbol
 _atom_site_label
 _atom_site_symmetry_multiplicity
 _atom_site_fract_x
 _atom_site_fract_y
 _atom_site_fract_z
 _atom_site_occupancy
  Ca  Ca0  1  0.69059200  0.38118400  0.14395000  1.0
  Ca  Ca1  1  0.97424100  0.94848200  0.24258600  1.0
  Ca  Ca2  1  0.02575900  0.05151800  0.75741400  1.0
  Ca  Ca3  1  0.30940800  0.61881600  0.85605000  1.0
  Mg  Mg4  1  0.34372500  0.68745000  0.46611500  1.0
  Mg  Mg5  1  0.65627500  0.31255000  0.53388500  1.0
