# generated using pymatgen
data_Ca2Sn3S8
_symmetry_space_group_name_H-M   'P 1'
_cell_length_a   7.55887011
_cell_length_b   7.55887011
_cell_length_c   7.91464211
_cell_angle_alpha   61.47615814
_cell_angle_beta   61.47615814
_cell_angle_gamma   59.99999899
_symmetry_Int_Tables_number   1
_chemical_formula_structural   Ca2Sn3S8
_chemical_formula_sum   'Ca2 Sn3 S8'
_cell_volume   326.71418925
_cell_formula_units_Z   1
loop_
 _symmetry_equiv_pos_site_id
 _symmetry_equiv_pos_as_xyz
  1  'x, y, z'
loop_
 _atom_site_type_symbol
 _atom_site_label
 _atom_site_symmetry_multiplicity
 _atom_site_fract_x
 _atom_site_fract_y
 _atom_site_fract_z
 _atom_site_occupancy
  Ca  Ca0  1  0.15680400  0.15680400  0.52958800  1.0
  Ca  Ca1  1  0.84319600  0.84319600  0.47041200  1.0
  Sn  Sn2  1  0.50000000  0.50000000  1.00000000  1.0
  Sn  Sn3  1  0.50000000  1.00000000  0.00000000  1.0
  Sn  Sn4  1  0.00000000  0.50000000  0.00000000  1.0
  S  S5  1  0.42735400  0.89869500  0.77525600  1.0
  S  S6  1  0.89869500  0.89869500  0.77525600  1.0
  S  S7  1  0.89869500  0.42735400  0.77525600  1.0
  S  S8  1  0.57264600  0.10130500  0.22474400  1.0
  S  S9  1  0.10130500  0.10130500  0.22474400  1.0
  S  S10  1  0.10130500  0.57264600  0.22474400  1.0
  S  S11  1  0.40670200  0.40670200  0.77989400  1.0
  S  S12  1  0.59329800  0.59329800  0.22010600  1.0
