# generated using pymatgen
data_Ca2VWO6
_symmetry_space_group_name_H-M   'P 1'
_cell_length_a   5.57174108
_cell_length_b   5.59150717
_cell_length_c   5.59849262
_cell_angle_alpha   60.18128909
_cell_angle_beta   60.22496754
_cell_angle_gamma   60.43743162
_symmetry_Int_Tables_number   1
_chemical_formula_structural   Ca2VWO6
_chemical_formula_sum   'Ca2 V1 W1 O6'
_cell_volume   124.11561321
_cell_formula_units_Z   1
loop_
 _symmetry_equiv_pos_site_id
 _symmetry_equiv_pos_as_xyz
  1  'x, y, z'
loop_
 _atom_site_type_symbol
 _atom_site_label
 _atom_site_symmetry_multiplicity
 _atom_site_fract_x
 _atom_site_fract_y
 _atom_site_fract_z
 _atom_site_occupancy
  Ca  Ca0  1  0.73891550  0.74350550  0.77087950  1.0
  Ca  Ca2  1  0.23318100  0.25099800  0.22881500  1.0
  O  O8  1  0.18000550  0.69620550  0.81934350  1.0
  O  O10  1  0.79229100  0.29806400  0.18031600  1.0
  O  O12  1  0.21604850  0.23996500  0.66025900  1.0
  O  O14  1  0.75653150  0.75413050  0.33937050  1.0
  O  O16  1  0.28386950  0.81909400  0.18284200  1.0
  O  O18  1  0.68850500  0.17526750  0.81685550  1.0
  V  V4  1  0.48611200  0.49733350  0.49974550  1.0
  W  W6  1  0.98621550  0.99714900  0.99981400  1.0
