# generated using pymatgen
data_Ca3(InGa2)2
_symmetry_space_group_name_H-M   'P 1'
_cell_length_a   4.67847600
_cell_length_b   4.67847681
_cell_length_c   22.73108100
_cell_angle_alpha   90.00000000
_cell_angle_beta   90.00000000
_cell_angle_gamma   119.99999428
_symmetry_Int_Tables_number   1
_chemical_formula_structural   Ca3(InGa2)2
_chemical_formula_sum   'Ca6 In4 Ga8'
_cell_volume   430.88327150
_cell_formula_units_Z   2
loop_
 _symmetry_equiv_pos_site_id
 _symmetry_equiv_pos_as_xyz
  1  'x, y, z'
loop_
 _atom_site_type_symbol
 _atom_site_label
 _atom_site_symmetry_multiplicity
 _atom_site_fract_x
 _atom_site_fract_y
 _atom_site_fract_z
 _atom_site_occupancy
  Ca  Ca0  1  0.00000000  0.00000000  0.74460600  1.0
  Ca  Ca1  1  0.00000000  0.00000000  0.41285200  1.0
  Ca  Ca2  1  0.00000000  0.00000000  0.08044400  1.0
  Ca  Ca3  1  0.00000000  0.00000000  0.92132600  1.0
  Ca  Ca4  1  0.00000000  0.00000000  0.58407600  1.0
  Ca  Ca5  1  0.00000000  0.00000000  0.25074500  1.0
  In  In6  1  0.33333333  0.66666667  0.81493200  1.0
  In  In7  1  0.33333333  0.66666667  0.48622000  1.0
  In  In8  1  0.33333333  0.66666667  0.15318700  1.0
  In  In9  1  0.66666667  0.33333333  0.85132600  1.0
  Ga  Ga10  1  0.66666667  0.33333333  0.51877000  1.0
  Ga  Ga11  1  0.66666667  0.33333333  0.18562400  1.0
  Ga  Ga12  1  0.66666667  0.33333333  0.98632200  1.0
  Ga  Ga13  1  0.66666667  0.33333333  0.65085000  1.0
  Ga  Ga14  1  0.66666667  0.33333333  0.31761700  1.0
  Ga  Ga15  1  0.33333333  0.66666667  0.67955100  1.0
  Ga  Ga16  1  0.33333333  0.66666667  0.34708100  1.0
  Ga  Ga17  1  0.33333333  0.66666667  0.01446900  1.0
