# generated using pymatgen
data_Ca3LaMn4O12
_symmetry_space_group_name_H-M   'P 1'
_cell_length_a   5.41476967
_cell_length_b   5.42631015
_cell_length_c   7.66967932
_cell_angle_alpha   90.33096436
_cell_angle_beta   90.02657161
_cell_angle_gamma   91.24222641
_symmetry_Int_Tables_number   1
_chemical_formula_structural   Ca3LaMn4O12
_chemical_formula_sum   'Ca3 La1 Mn4 O12'
_cell_volume   225.29544152
_cell_formula_units_Z   1
loop_
 _symmetry_equiv_pos_site_id
 _symmetry_equiv_pos_as_xyz
  1  'x, y, z'
loop_
 _atom_site_type_symbol
 _atom_site_label
 _atom_site_symmetry_multiplicity
 _atom_site_fract_x
 _atom_site_fract_y
 _atom_site_fract_z
 _atom_site_occupancy
  Ca  Ca0  1  0.48725600  0.46410500  0.25312100  1.0
  Ca  Ca1  1  0.00610200  0.96023000  0.25232400  1.0
  Ca  Ca2  1  0.51147900  0.53736500  0.74701700  1.0
  La  La3  1  0.99866800  0.02794000  0.74663700  1.0
  Mn  Mn4  1  0.99925600  0.49970200  0.49514700  1.0
  Mn  Mn5  1  0.50138500  0.00039400  0.00466600  1.0
  Mn  Mn6  1  0.00041300  0.49965300  0.00486200  1.0
  Mn  Mn7  1  0.50004600  0.00065200  0.49419500  1.0
  O  O8  1  0.57929000  0.02783900  0.24018300  1.0
  O  O9  1  0.91690200  0.51805200  0.24880100  1.0
  O  O10  1  0.43763000  0.97901300  0.75913300  1.0
  O  O11  1  0.07899200  0.49366100  0.75244000  1.0
  O  O12  1  0.20957300  0.21365700  0.03944100  1.0
  O  O13  1  0.19566400  0.22273300  0.46180200  1.0
  O  O14  1  0.28406200  0.71577400  0.45941600  1.0
  O  O15  1  0.28304300  0.71719300  0.04647300  1.0
  O  O16  1  0.79584100  0.77222600  0.53522900  1.0
  O  O17  1  0.78277900  0.78074800  0.96416100  1.0
  O  O18  1  0.71742100  0.28377700  0.95308700  1.0
  O  O19  1  0.71419800  0.28528800  0.54186300  1.0
