# generated using pymatgen
data_Ca3Ni7B2
_symmetry_space_group_name_H-M   'P 1'
_cell_length_a   5.13405592
_cell_length_b   5.13405592
_cell_length_c   7.68617520
_cell_angle_alpha   70.48948758
_cell_angle_beta   70.48948758
_cell_angle_gamma   60.00000103
_symmetry_Int_Tables_number   1
_chemical_formula_structural   Ca3Ni7B2
_chemical_formula_sum   'Ca3 Ni7 B2'
_cell_volume   161.88159186
_cell_formula_units_Z   1
loop_
 _symmetry_equiv_pos_site_id
 _symmetry_equiv_pos_as_xyz
  1  'x, y, z'
loop_
 _atom_site_type_symbol
 _atom_site_label
 _atom_site_symmetry_multiplicity
 _atom_site_fract_x
 _atom_site_fract_y
 _atom_site_fract_z
 _atom_site_occupancy
  Ca  Ca0  1  0.64484600  0.64484600  0.06546200  1.0
  Ca  Ca1  1  0.35515400  0.35515400  0.93453800  1.0
  Ca  Ca2  1  0.50000000  0.50000000  0.50000000  1.0
  Ni  Ni3  1  0.06114400  0.57195900  0.30575300  1.0
  Ni  Ni4  1  0.06114400  0.06114400  0.30575300  1.0
  Ni  Ni5  1  0.57195900  0.06114400  0.30575300  1.0
  Ni  Ni6  1  0.42804100  0.93885600  0.69424700  1.0
  Ni  Ni7  1  0.93885600  0.93885600  0.69424700  1.0
  Ni  Ni8  1  0.93885600  0.42804100  0.69424700  1.0
  Ni  Ni9  1  0.00000000  0.00000000  0.00000000  1.0
  B  B10  1  0.83093700  0.83093700  0.50718900  1.0
  B  B11  1  0.16906300  0.16906300  0.49281100  1.0
