# generated using pymatgen
data_Ca4NdB3O10
_symmetry_space_group_name_H-M   'P 1'
_cell_length_a   3.63080153
_cell_length_b   8.18636800
_cell_length_c   9.06719553
_cell_angle_alpha   63.16467386
_cell_angle_beta   84.83932977
_cell_angle_gamma   78.50664115
_symmetry_Int_Tables_number   1
_chemical_formula_structural   Ca4NdB3O10
_chemical_formula_sum   'Ca4 Nd1 B3 O10'
_cell_volume   235.65915670
_cell_formula_units_Z   1
loop_
 _symmetry_equiv_pos_site_id
 _symmetry_equiv_pos_as_xyz
  1  'x, y, z'
loop_
 _atom_site_type_symbol
 _atom_site_label
 _atom_site_symmetry_multiplicity
 _atom_site_fract_x
 _atom_site_fract_y
 _atom_site_fract_z
 _atom_site_occupancy
  Ca  Ca0  1  0.27718400  0.32452200  0.22665500  1.0
  Ca  Ca1  1  0.27718400  0.55117700  0.77334500  1.0
  Ca  Ca2  1  0.94922400  0.87936400  0.36339000  1.0
  Ca  Ca3  1  0.94922400  0.24275400  0.63661000  1.0
  Nd  Nd4  1  0.60735800  0.79557400  0.00000000  1.0
  B  B5  1  0.90347100  0.17445100  1.00000000  1.0
  B  B6  1  0.52352900  0.94265900  0.60991600  1.0
  B  B7  1  0.52352900  0.55257500  0.39008400  1.0
  O  O8  1  0.52452500  0.03138400  0.71033200  1.0
  O  O9  1  0.52452500  0.74171600  0.28966800  1.0
  O  O10  1  0.18846800  0.61888400  0.00000000  1.0
  O  O11  1  0.85600400  0.18484300  0.14945800  1.0
  O  O12  1  0.85600400  0.33430100  0.85054200  1.0
  O  O13  1  0.99927100  0.00145000  1.00000000  1.0
  O  O14  1  0.33031500  0.03344700  0.46163200  1.0
  O  O15  1  0.33031500  0.49507900  0.53836800  1.0
  O  O16  1  0.71948700  0.76234300  0.65763400  1.0
  O  O17  1  0.71948700  0.41997700  0.34236600  1.0
