# generated using pymatgen
data_Ca4PbN4
_symmetry_space_group_name_H-M   'P 1'
_cell_length_a   6.19550281
_cell_length_b   6.22239227
_cell_length_c   9.33713831
_cell_angle_alpha   71.65817222
_cell_angle_beta   85.00074993
_cell_angle_gamma   68.72868997
_symmetry_Int_Tables_number   1
_chemical_formula_structural   Ca4PbN4
_chemical_formula_sum   'Ca8 Pb2 N8'
_cell_volume   318.24210469
_cell_formula_units_Z   2
loop_
 _symmetry_equiv_pos_site_id
 _symmetry_equiv_pos_as_xyz
  1  'x, y, z'
loop_
 _atom_site_type_symbol
 _atom_site_label
 _atom_site_symmetry_multiplicity
 _atom_site_fract_x
 _atom_site_fract_y
 _atom_site_fract_z
 _atom_site_occupancy
  Ca  Ca0  1  0.27138700  0.17484700  0.20288800  1.0
  Ca  Ca1  1  0.72861300  0.82515300  0.79711200  1.0
  Ca  Ca2  1  0.25129400  0.75273700  0.99742000  1.0
  Ca  Ca3  1  0.74870600  0.24726300  0.00258000  1.0
  Ca  Ca4  1  0.26077500  0.94393800  0.57732800  1.0
  Ca  Ca5  1  0.73922500  0.05606200  0.42267200  1.0
  Ca  Ca6  1  0.74588700  0.47097700  0.58854800  1.0
  Ca  Ca7  1  0.25411300  0.52902300  0.41145200  1.0
  Pb  Pb8  1  0.27656600  0.39139300  0.76905200  1.0
  Pb  Pb9  1  0.72343400  0.60860700  0.23094800  1.0
  N  N10  1  0.00098200  0.70276300  0.60580000  1.0
  N  N11  1  0.99901800  0.29723700  0.39420000  1.0
  N  N12  1  0.15006700  0.17399700  0.96374100  1.0
  N  N13  1  0.84993300  0.82600300  0.03625900  1.0
  N  N14  1  0.49858600  0.59632100  0.80192100  1.0
  N  N15  1  0.50141400  0.40367900  0.19807900  1.0
  N  N16  1  0.49609700  0.80309200  0.38836800  1.0
  N  N17  1  0.50390300  0.19690800  0.61163200  1.0
