# generated using pymatgen
data_CaBiO3
_symmetry_space_group_name_H-M   'P 1'
_cell_length_a   5.93909354
_cell_length_b   5.93909354
_cell_length_c   6.16658002
_cell_angle_alpha   61.21299770
_cell_angle_beta   61.21299770
_cell_angle_gamma   60.00000513
_symmetry_Int_Tables_number   1
_chemical_formula_structural   CaBiO3
_chemical_formula_sum   'Ca2 Bi2 O6'
_cell_volume   156.56460004
_cell_formula_units_Z   2
loop_
 _symmetry_equiv_pos_site_id
 _symmetry_equiv_pos_as_xyz
  1  'x, y, z'
loop_
 _atom_site_type_symbol
 _atom_site_label
 _atom_site_symmetry_multiplicity
 _atom_site_fract_x
 _atom_site_fract_y
 _atom_site_fract_z
 _atom_site_occupancy
  Ca  Ca0  1  0.86238600  0.86238600  0.41284200  1.0
  Ca  Ca1  1  0.13761400  0.13761400  0.58715800  1.0
  Bi  Bi2  1  0.64673600  0.64673600  0.05979200  1.0
  Bi  Bi3  1  0.35326400  0.35326400  0.94020800  1.0
  O  O4  1  0.26704500  0.95964000  0.23664500  1.0
  O  O5  1  0.95964000  0.53667000  0.23664500  1.0
  O  O6  1  0.53667000  0.26704500  0.23664500  1.0
  O  O7  1  0.46333000  0.73295500  0.76335500  1.0
  O  O8  1  0.04036000  0.46333000  0.76335500  1.0
  O  O9  1  0.73295500  0.04036000  0.76335500  1.0
