# generated using pymatgen
data_CaCuF5
_symmetry_space_group_name_H-M   'P 1'
_cell_length_a   5.54428799
_cell_length_b   5.55540220
_cell_length_c   7.71083282
_cell_angle_alpha   110.61867483
_cell_angle_beta   110.36340725
_cell_angle_gamma   71.15788157
_symmetry_Int_Tables_number   1
_chemical_formula_structural   CaCuF5
_chemical_formula_sum   'Ca2 Cu2 F10'
_cell_volume   202.88527047
_cell_formula_units_Z   2
loop_
 _symmetry_equiv_pos_site_id
 _symmetry_equiv_pos_as_xyz
  1  'x, y, z'
loop_
 _atom_site_type_symbol
 _atom_site_label
 _atom_site_symmetry_multiplicity
 _atom_site_fract_x
 _atom_site_fract_y
 _atom_site_fract_z
 _atom_site_occupancy
  Ca  Ca0  1  0.54174200  0.45654000  0.74964100  1.0
  Ca  Ca1  1  0.45510000  0.54874000  0.25339400  1.0
  Cu  Cu2  1  0.00279700  0.00008100  0.99806800  1.0
  Cu  Cu3  1  0.99948700  0.00180100  0.49945100  1.0
  F  F4  1  0.07160800  0.93705300  0.25403400  1.0
  F  F5  1  0.93268100  0.07212700  0.74621000  1.0
  F  F6  1  0.74999800  0.79250000  0.37822700  1.0
  F  F7  1  0.21448300  0.23565700  0.11379000  1.0
  F  F8  1  0.69390800  0.28703500  0.02228900  1.0
  F  F9  1  0.71290000  0.31084100  0.47816900  1.0
  F  F10  1  0.30804300  0.70832800  0.97543500  1.0
  F  F11  1  0.28079100  0.68778300  0.52277800  1.0
  F  F12  1  0.79318800  0.76106000  0.88202600  1.0
  F  F13  1  0.25307300  0.20559100  0.62066000  1.0
