# generated using pymatgen
data_CaCu2F8
_symmetry_space_group_name_H-M   'P 1'
_cell_length_a   5.45369600
_cell_length_b   5.45369600
_cell_length_c   6.44745384
_cell_angle_alpha   115.01996770
_cell_angle_beta   115.01996770
_cell_angle_gamma   90.00000000
_symmetry_Int_Tables_number   1
_chemical_formula_structural   CaCu2F8
_chemical_formula_sum   'Ca1 Cu2 F8'
_cell_volume   153.68211846
_cell_formula_units_Z   1
loop_
 _symmetry_equiv_pos_site_id
 _symmetry_equiv_pos_as_xyz
  1  'x, y, z'
loop_
 _atom_site_type_symbol
 _atom_site_label
 _atom_site_symmetry_multiplicity
 _atom_site_fract_x
 _atom_site_fract_y
 _atom_site_fract_z
 _atom_site_occupancy
  Ca  Ca0  1  0.00000000  0.00000000  0.00000000  1.0
  Cu  Cu1  1  0.75000000  0.25000000  0.50000000  1.0
  Cu  Cu2  1  0.25000000  0.75000000  0.50000000  1.0
  F  F3  1  0.71205200  0.54040800  0.74638700  1.0
  F  F4  1  0.45959200  0.28794800  0.25361400  1.0
  F  F5  1  0.79402200  0.96566600  0.25361400  1.0
  F  F6  1  0.28794800  0.79402200  0.25361400  1.0
  F  F7  1  0.03433400  0.20597800  0.74638600  1.0
  F  F8  1  0.54040800  0.03433400  0.74638600  1.0
  F  F9  1  0.20597900  0.71205300  0.74638700  1.0
  F  F10  1  0.96566600  0.45959200  0.25361400  1.0
