# generated using pymatgen
data_CaFeO2
_symmetry_space_group_name_H-M   'P 1'
_cell_length_a   3.45200650
_cell_length_b   5.56425200
_cell_length_c   5.56427000
_cell_angle_alpha   89.99925861
_cell_angle_beta   90.00010958
_cell_angle_gamma   89.99992761
_symmetry_Int_Tables_number   1
_chemical_formula_structural   CaFeO2
_chemical_formula_sum   'Ca2 Fe2 O4'
_cell_volume   106.87757488
_cell_formula_units_Z   2
loop_
 _symmetry_equiv_pos_site_id
 _symmetry_equiv_pos_as_xyz
  1  'x, y, z'
loop_
 _atom_site_type_symbol
 _atom_site_label
 _atom_site_symmetry_multiplicity
 _atom_site_fract_x
 _atom_site_fract_y
 _atom_site_fract_z
 _atom_site_occupancy
  Ca  Ca0  1  0.40191100  0.00000200  0.49999750  1.0
  Ca  Ca2  1  0.59808300  0.50000100  0.99999850  1.0
  Fe  Fe4  1  0.00000800  0.49999000  0.49999700  1.0
  Fe  Fe5  1  0.99998300  0.00000550  0.00000900  1.0
  O  O8  1  0.13639000  0.71851150  0.78148750  1.0
  O  O10  1  0.86362100  0.21851850  0.71851100  1.0
  O  O12  1  0.13639700  0.28148800  0.21850750  1.0
  O  O14  1  0.86360900  0.78148250  0.28149150  1.0
