# generated using pymatgen
data_CaGaSn
_symmetry_space_group_name_H-M   'P 1'
_cell_length_a   4.55986200
_cell_length_b   4.55986171
_cell_length_c   17.28777000
_cell_angle_alpha   90.00000000
_cell_angle_beta   90.00000000
_cell_angle_gamma   120.00000207
_symmetry_Int_Tables_number   1
_chemical_formula_structural   CaGaSn
_chemical_formula_sum   'Ca4 Ga4 Sn4'
_cell_volume   311.29559070
_cell_formula_units_Z   4
loop_
 _symmetry_equiv_pos_site_id
 _symmetry_equiv_pos_as_xyz
  1  'x, y, z'
loop_
 _atom_site_type_symbol
 _atom_site_label
 _atom_site_symmetry_multiplicity
 _atom_site_fract_x
 _atom_site_fract_y
 _atom_site_fract_z
 _atom_site_occupancy
  Ca  Ca0  1  0.00000000  0.00000000  0.50000000  1.0
  Ca  Ca1  1  0.00000000  0.00000000  0.00000000  1.0
  Ca  Ca2  1  0.00000000  0.00000000  0.75000000  1.0
  Ca  Ca3  1  0.00000000  0.00000000  0.25000000  1.0
  Ga  Ga4  1  0.66666667  0.33333333  0.66525300  1.0
  Ga  Ga5  1  0.33333333  0.66666667  0.33474700  1.0
  Ga  Ga6  1  0.33333333  0.66666667  0.16525300  1.0
  Ga  Ga7  1  0.66666667  0.33333333  0.83474700  1.0
  Sn  Sn8  1  0.66666667  0.33333333  0.11203800  1.0
  Sn  Sn9  1  0.33333333  0.66666667  0.88796200  1.0
  Sn  Sn10  1  0.33333333  0.66666667  0.61203800  1.0
  Sn  Sn11  1  0.66666667  0.33333333  0.38796200  1.0
