# generated using pymatgen
data_CaLaGaCuO5
_symmetry_space_group_name_H-M   'P 1'
_cell_length_a   5.30711110
_cell_length_b   5.59994494
_cell_length_c   8.94463217
_cell_angle_alpha   108.18988961
_cell_angle_beta   107.20252916
_cell_angle_gamma   90.16735953
_symmetry_Int_Tables_number   1
_chemical_formula_structural   CaLaGaCuO5
_chemical_formula_sum   'Ca2 La2 Ga2 Cu2 O10'
_cell_volume   239.91612325
_cell_formula_units_Z   2
loop_
 _symmetry_equiv_pos_site_id
 _symmetry_equiv_pos_as_xyz
  1  'x, y, z'
loop_
 _atom_site_type_symbol
 _atom_site_label
 _atom_site_symmetry_multiplicity
 _atom_site_fract_x
 _atom_site_fract_y
 _atom_site_fract_z
 _atom_site_occupancy
  Ca  Ca0  1  0.89881900  0.41674100  0.28022100  1.0
  Ca  Ca1  1  0.61859800  0.13652000  0.71977900  1.0
  La  La2  1  0.10639600  0.57826300  0.70575300  1.0
  La  La3  1  0.40064300  0.87251000  0.29424700  1.0
  Ga  Ga4  1  0.29549100  0.18747600  0.00000000  1.0
  Ga  Ga5  1  0.78808300  0.81381600  0.00000000  1.0
  Cu  Cu6  1  0.49863100  0.49938900  0.49885900  1.0
  Cu  Cu7  1  0.99977200  0.00053000  0.50114100  1.0
  O  O8  1  0.31193100  0.42023800  0.19938500  1.0
  O  O9  1  0.61664600  0.57420500  0.80038700  1.0
  O  O10  1  0.81625900  0.77381800  0.19961300  1.0
  O  O11  1  0.11254600  0.22085300  0.80061500  1.0
  O  O12  1  0.75853400  0.75944800  0.52008200  1.0
  O  O13  1  0.74300900  0.24456600  0.48079400  1.0
  O  O14  1  0.26221500  0.76377200  0.51920600  1.0
  O  O15  1  0.23845200  0.23936600  0.47991800  1.0
  O  O16  1  0.15172000  0.86925600  0.00000000  1.0
  O  O17  1  0.65225800  0.12923100  0.00000000  1.0
