# generated using pymatgen
data_CaLaFeSbO6
_symmetry_space_group_name_H-M   'P 1'
_cell_length_a   5.60387550
_cell_length_b   5.76048910
_cell_length_c   8.06243277
_cell_angle_alpha   89.73161480
_cell_angle_beta   89.61926305
_cell_angle_gamma   91.44813447
_symmetry_Int_Tables_number   1
_chemical_formula_structural   CaLaFeSbO6
_chemical_formula_sum   'Ca2 La2 Fe2 Sb2 O12'
_cell_volume   260.17197157
_cell_formula_units_Z   2
loop_
 _symmetry_equiv_pos_site_id
 _symmetry_equiv_pos_as_xyz
  1  'x, y, z'
loop_
 _atom_site_type_symbol
 _atom_site_label
 _atom_site_symmetry_multiplicity
 _atom_site_fract_x
 _atom_site_fract_y
 _atom_site_fract_z
 _atom_site_occupancy
  Ca  Ca0  1  0.50953800  0.44623600  0.25270900  1.0
  Ca  Ca1  1  0.02057800  0.05455600  0.74933700  1.0
  La  La2  1  0.98050300  0.94958200  0.24939700  1.0
  La  La3  1  0.49299000  0.54964600  0.74799600  1.0
  Fe  Fe4  1  0.50015400  0.00023400  0.50098300  1.0
  Fe  Fe5  1  0.99872500  0.49968900  0.00079600  1.0
  Sb  Sb6  1  0.00148700  0.49750200  0.49881700  1.0
  Sb  Sb7  1  0.49823900  0.00236600  0.99926300  1.0
  O  O8  1  0.60564500  0.96800500  0.76160700  1.0
  O  O9  1  0.10144400  0.53112200  0.26038900  1.0
  O  O10  1  0.20578100  0.80211400  0.94824100  1.0
  O  O11  1  0.71277800  0.68787100  0.45027300  1.0
  O  O12  1  0.19382000  0.79130800  0.55216000  1.0
  O  O13  1  0.68544900  0.71872500  0.05843000  1.0
  O  O14  1  0.90650800  0.46359100  0.73886300  1.0
  O  O15  1  0.39952500  0.03783500  0.23888800  1.0
  O  O16  1  0.28711000  0.30625100  0.54825700  1.0
  O  O17  1  0.78734600  0.20460700  0.05183900  1.0
  O  O18  1  0.30717300  0.28164400  0.94199500  1.0
  O  O19  1  0.80521000  0.20711500  0.44975900  1.0
