# generated using pymatgen
data_CaMg3
_symmetry_space_group_name_H-M   'P 1'
_cell_length_a   5.38150400
_cell_length_b   6.80857800
_cell_length_c   6.80857842
_cell_angle_alpha   60.00000205
_cell_angle_beta   90.00000000
_cell_angle_gamma   90.00000000
_symmetry_Int_Tables_number   1
_chemical_formula_structural   CaMg3
_chemical_formula_sum   'Ca2 Mg6'
_cell_volume   216.04646716
_cell_formula_units_Z   2
loop_
 _symmetry_equiv_pos_site_id
 _symmetry_equiv_pos_as_xyz
  1  'x, y, z'
loop_
 _atom_site_type_symbol
 _atom_site_label
 _atom_site_symmetry_multiplicity
 _atom_site_fract_x
 _atom_site_fract_y
 _atom_site_fract_z
 _atom_site_occupancy
  Ca  Ca0  1  0.75000000  0.33333333  0.33333333  1.0
  Ca  Ca1  1  0.25000000  0.66666667  0.66666667  1.0
  Mg  Mg2  1  0.75000000  0.83955000  0.32090000  1.0
  Mg  Mg3  1  0.75000000  0.32090100  0.83954900  1.0
  Mg  Mg4  1  0.75000000  0.83955000  0.83954900  1.0
  Mg  Mg5  1  0.25000000  0.16045000  0.16045100  1.0
  Mg  Mg6  1  0.25000000  0.16045000  0.67910000  1.0
  Mg  Mg7  1  0.25000000  0.67909900  0.16045100  1.0
