# generated using pymatgen
data_CaMn7O8
_symmetry_space_group_name_H-M   'P 1'
_cell_length_a   5.56749340
_cell_length_b   6.42338800
_cell_length_c   6.43080677
_cell_angle_alpha   60.03815444
_cell_angle_beta   73.06518237
_cell_angle_gamma   90.00000000
_symmetry_Int_Tables_number   1
_chemical_formula_structural   CaMn7O8
_chemical_formula_sum   'Ca1 Mn7 O8'
_cell_volume   187.64565312
_cell_formula_units_Z   1
loop_
 _symmetry_equiv_pos_site_id
 _symmetry_equiv_pos_as_xyz
  1  'x, y, z'
loop_
 _atom_site_type_symbol
 _atom_site_label
 _atom_site_symmetry_multiplicity
 _atom_site_fract_x
 _atom_site_fract_y
 _atom_site_fract_z
 _atom_site_occupancy
  Ca  Ca0  1  0.50000000  0.50000000  0.00000000  1.0
  Mn  Mn1  1  0.00000000  0.75274200  0.00000000  1.0
  Mn  Mn2  1  0.99811500  0.24916300  0.50167400  1.0
  Mn  Mn3  1  0.00188500  0.75083700  0.49832600  1.0
  Mn  Mn4  1  0.50000000  0.50000000  0.50000000  1.0
  Mn  Mn5  1  0.50000000  0.00000000  0.50000000  1.0
  Mn  Mn6  1  0.00000000  0.24725800  0.00000000  1.0
  Mn  Mn7  1  0.50000000  0.00000000  0.00000000  1.0
  O  O8  1  0.24227200  0.62699200  0.74601600  1.0
  O  O9  1  0.24520700  0.62964700  0.25464200  1.0
  O  O10  1  0.24520700  0.11571100  0.25464200  1.0
  O  O11  1  0.25362000  0.12500700  0.74998600  1.0
  O  O12  1  0.75772800  0.37300800  0.25398400  1.0
  O  O13  1  0.75479300  0.88428900  0.74535800  1.0
  O  O14  1  0.75479300  0.37035300  0.74535800  1.0
  O  O15  1  0.74638000  0.87499300  0.25001400  1.0
