# generated using pymatgen
data_CaMnF5
_symmetry_space_group_name_H-M   'P 1'
_cell_length_a   5.60237357
_cell_length_b   5.60237357
_cell_length_c   7.93547164
_cell_angle_alpha   97.27410001
_cell_angle_beta   110.29558223
_cell_angle_gamma   109.22876747
_symmetry_Int_Tables_number   1
_chemical_formula_structural   CaMnF5
_chemical_formula_sum   'Ca2 Mn2 F10'
_cell_volume   212.25751965
_cell_formula_units_Z   2
loop_
 _symmetry_equiv_pos_site_id
 _symmetry_equiv_pos_as_xyz
  1  'x, y, z'
loop_
 _atom_site_type_symbol
 _atom_site_label
 _atom_site_symmetry_multiplicity
 _atom_site_fract_x
 _atom_site_fract_y
 _atom_site_fract_z
 _atom_site_occupancy
  Ca  Ca0  1  0.20589400  0.45589400  0.75000000  1.0
  Ca  Ca1  1  0.79410600  0.54410600  0.25000000  1.0
  Mn  Mn2  1  0.00000000  0.00000000  0.00000000  1.0
  Mn  Mn3  1  0.50000000  0.00000000  0.50000000  1.0
  F  F4  1  0.15340400  0.90340400  0.25000000  1.0
  F  F5  1  0.84659600  0.09659600  0.75000000  1.0
  F  F6  1  0.62579900  0.79070700  0.38332200  1.0
  F  F7  1  0.90738500  0.24247700  0.11667800  1.0
  F  F8  1  0.34072900  0.28724000  0.03240100  1.0
  F  F9  1  0.75483900  0.30832800  0.46759900  1.0
  F  F10  1  0.65927100  0.71276000  0.96759900  1.0
  F  F11  1  0.24516100  0.69167200  0.53240100  1.0
  F  F12  1  0.09261500  0.75752300  0.88332200  1.0
  F  F13  1  0.37420100  0.20929300  0.61667800  1.0
