# generated using pymatgen
data_CaNiF4
_symmetry_space_group_name_H-M   'P 1'
_cell_length_a   5.40452770
_cell_length_b   5.40429413
_cell_length_c   6.50544621
_cell_angle_alpha   65.55462581
_cell_angle_beta   65.63569805
_cell_angle_gamma   89.99537881
_symmetry_Int_Tables_number   1
_chemical_formula_structural   CaNiF4
_chemical_formula_sum   'Ca2 Ni2 F8'
_cell_volume   154.19885025
_cell_formula_units_Z   2
loop_
 _symmetry_equiv_pos_site_id
 _symmetry_equiv_pos_as_xyz
  1  'x, y, z'
loop_
 _atom_site_type_symbol
 _atom_site_label
 _atom_site_symmetry_multiplicity
 _atom_site_fract_x
 _atom_site_fract_y
 _atom_site_fract_z
 _atom_site_occupancy
  Ca  Ca0  1  0.24747100  0.24617400  0.50173700  1.0
  Ca  Ca1  1  0.74761200  0.74586100  0.50180300  1.0
  Ni  Ni2  1  0.49733300  0.99612000  0.00255100  1.0
  Ni  Ni3  1  0.99795200  0.49671800  0.00045100  1.0
  F  F4  1  0.81341200  0.31174100  0.75302200  1.0
  F  F5  1  0.55826400  0.05710000  0.25645700  1.0
  F  F6  1  0.18143800  0.68030100  0.25315600  1.0
  F  F7  1  0.68172500  0.55983500  0.25224500  1.0
  F  F8  1  0.43562600  0.93392900  0.74923700  1.0
  F  F9  1  0.93533900  0.81287400  0.74881900  1.0
  F  F10  1  0.31429900  0.43286700  0.74984200  1.0
  F  F11  1  0.05983400  0.18072200  0.25334900  1.0
