# generated using pymatgen
data_CaTb3Mn4O12
_symmetry_space_group_name_H-M   'P 1'
_cell_length_a   5.35136300
_cell_length_b   5.65368340
_cell_length_c   7.61934500
_cell_angle_alpha   90.00000000
_cell_angle_beta   90.00000000
_cell_angle_gamma   90.55202055
_symmetry_Int_Tables_number   1
_chemical_formula_structural   CaTb3Mn4O12
_chemical_formula_sum   'Ca1 Tb3 Mn4 O12'
_cell_volume   230.51191464
_cell_formula_units_Z   1
loop_
 _symmetry_equiv_pos_site_id
 _symmetry_equiv_pos_as_xyz
  1  'x, y, z'
loop_
 _atom_site_type_symbol
 _atom_site_label
 _atom_site_symmetry_multiplicity
 _atom_site_fract_x
 _atom_site_fract_y
 _atom_site_fract_z
 _atom_site_occupancy
  Ca  Ca0  1  0.51476400  0.56033900  0.50000000  1.0
  Tb  Tb1  1  0.98267400  0.06693200  0.50000000  1.0
  Tb  Tb2  1  0.48253800  0.43202700  0.00000000  1.0
  Tb  Tb3  1  0.01604500  0.93311600  0.00000000  1.0
  Mn  Mn4  1  0.99762000  0.50070700  0.74771700  1.0
  Mn  Mn5  1  0.50158600  0.99800000  0.25170900  1.0
  Mn  Mn6  1  0.99762000  0.50070700  0.25228300  1.0
  Mn  Mn7  1  0.50158600  0.99800000  0.74829100  1.0
  O  O8  1  0.39453400  0.97098400  0.50000000  1.0
  O  O9  1  0.09400500  0.46350700  0.50000000  1.0
  O  O10  1  0.60302900  0.03310000  0.00000000  1.0
  O  O11  1  0.89430800  0.53325300  0.00000000  1.0
  O  O12  1  0.80057100  0.81521800  0.70281000  1.0
  O  O13  1  0.70567900  0.29753600  0.29826100  1.0
  O  O14  1  0.20895900  0.19259600  0.19527600  1.0
  O  O15  1  0.29463600  0.69931600  0.80893200  1.0
  O  O16  1  0.20895900  0.19259600  0.80472400  1.0
  O  O17  1  0.29463600  0.69931600  0.19106800  1.0
  O  O18  1  0.80057100  0.81521800  0.29719000  1.0
  O  O19  1  0.70567900  0.29753600  0.70173900  1.0
