# generated using pymatgen
data_CaWN3
_symmetry_space_group_name_H-M   'P 1'
_cell_length_a   3.64599600
_cell_length_b   5.83002422
_cell_length_c   7.50267979
_cell_angle_alpha   105.67927011
_cell_angle_beta   104.06246470
_cell_angle_gamma   90.00000000
_symmetry_Int_Tables_number   1
_chemical_formula_structural   CaWN3
_chemical_formula_sum   'Ca2 W2 N6'
_cell_volume   148.57440022
_cell_formula_units_Z   2
loop_
 _symmetry_equiv_pos_site_id
 _symmetry_equiv_pos_as_xyz
  1  'x, y, z'
loop_
 _atom_site_type_symbol
 _atom_site_label
 _atom_site_symmetry_multiplicity
 _atom_site_fract_x
 _atom_site_fract_y
 _atom_site_fract_z
 _atom_site_occupancy
  Ca  Ca0  1  0.59165700  0.29439200  0.18331400  1.0
  Ca  Ca1  1  0.40834300  0.70560800  0.81668600  1.0
  W  W2  1  0.15674900  0.87511000  0.31349800  1.0
  W  W3  1  0.84325100  0.12489000  0.68650200  1.0
  N  N4  1  0.12992500  0.55501400  0.25985000  1.0
  N  N5  1  0.87007500  0.44498600  0.74015000  1.0
  N  N6  1  0.96566000  0.05465600  0.93132000  1.0
  N  N7  1  0.30816600  0.97794600  0.61633200  1.0
  N  N8  1  0.03434000  0.94534400  0.06868000  1.0
  N  N9  1  0.69183400  0.02205400  0.38366800  1.0
