# generated using pymatgen
data_Cd(FeO2)2
_symmetry_space_group_name_H-M   'P 1'
_cell_length_a   6.24142100
_cell_length_b   6.24341813
_cell_length_c   6.24154040
_cell_angle_alpha   60.01001113
_cell_angle_beta   90.00005227
_cell_angle_gamma   60.01065563
_symmetry_Int_Tables_number   1
_chemical_formula_structural   Cd(FeO2)2
_chemical_formula_sum   'Cd2 Fe4 O8'
_cell_volume   172.03550887
_cell_formula_units_Z   2
loop_
 _symmetry_equiv_pos_site_id
 _symmetry_equiv_pos_as_xyz
  1  'x, y, z'
loop_
 _atom_site_type_symbol
 _atom_site_label
 _atom_site_symmetry_multiplicity
 _atom_site_fract_x
 _atom_site_fract_y
 _atom_site_fract_z
 _atom_site_occupancy
  Cd  Cd0  1  0.12500000  0.25000000  0.87500000  1.0
  Cd  Cd1  1  0.87500000  0.75000000  0.12500000  1.0
  Fe  Fe2  1  0.00000100  0.99999900  0.50000100  1.0
  Fe  Fe3  1  0.50000100  0.00000000  0.50000000  1.0
  Fe  Fe4  1  0.50000100  0.49999900  0.50000100  1.0
  Fe  Fe5  1  0.50000000  0.50000100  0.99999900  1.0
  O  O6  1  0.73253000  0.46487900  0.26756000  1.0
  O  O7  1  0.69740900  0.53512200  0.73243900  1.0
  O  O8  1  0.26755800  0.96488300  0.73252500  1.0
  O  O9  1  0.26755900  0.96488200  0.30259200  1.0
  O  O10  1  0.73244100  0.03511700  0.26747500  1.0
  O  O11  1  0.73244200  0.03511600  0.69740900  1.0
  O  O12  1  0.26746900  0.53512200  0.73243900  1.0
  O  O13  1  0.30259100  0.46487800  0.26756100  1.0
