# generated using pymatgen
data_Cd2AsCl2
_symmetry_space_group_name_H-M   'P 1'
_cell_length_a   8.00226500
_cell_length_b   8.22367986
_cell_length_c   9.37282500
_cell_angle_alpha   90.00000000
_cell_angle_beta   90.00000000
_cell_angle_gamma   116.94587490
_symmetry_Int_Tables_number   1
_chemical_formula_structural   Cd2AsCl2
_chemical_formula_sum   'Cd8 As4 Cl8'
_cell_volume   549.84377341
_cell_formula_units_Z   4
loop_
 _symmetry_equiv_pos_site_id
 _symmetry_equiv_pos_as_xyz
  1  'x, y, z'
loop_
 _atom_site_type_symbol
 _atom_site_label
 _atom_site_symmetry_multiplicity
 _atom_site_fract_x
 _atom_site_fract_y
 _atom_site_fract_z
 _atom_site_occupancy
  Cd  Cd0  1  0.30981700  0.74848900  0.91999900  1.0
  Cd  Cd1  1  0.19018300  0.75151100  0.41999900  1.0
  Cd  Cd2  1  0.69018300  0.25151100  0.08000100  1.0
  Cd  Cd3  1  0.80981700  0.24848900  0.58000100  1.0
  Cd  Cd4  1  0.33011500  0.28467500  0.70228500  1.0
  Cd  Cd5  1  0.66988500  0.71532500  0.29771500  1.0
  Cd  Cd6  1  0.83011500  0.78467500  0.79771500  1.0
  Cd  Cd7  1  0.16988500  0.21532500  0.20228500  1.0
  As  As8  1  0.50962700  0.44109300  0.11882400  1.0
  As  As9  1  0.00962700  0.94109300  0.38117600  1.0
  As  As10  1  0.99037300  0.05890700  0.61882400  1.0
  As  As11  1  0.49037300  0.55890700  0.88117600  1.0
  Cl  Cl12  1  0.04951600  0.80367500  0.02056600  1.0
  Cl  Cl13  1  0.45048400  0.69632500  0.52056600  1.0
  Cl  Cl14  1  0.95048400  0.19632500  0.97943400  1.0
  Cl  Cl15  1  0.54951600  0.30367500  0.47943400  1.0
  Cl  Cl16  1  0.00334700  0.58233300  0.68984100  1.0
  Cl  Cl17  1  0.49665300  0.91766700  0.18984100  1.0
  Cl  Cl18  1  0.99665300  0.41766700  0.31015900  1.0
  Cl  Cl19  1  0.50334700  0.08233300  0.81015900  1.0
