# generated using pymatgen
data_Cd2GaCuS4
_symmetry_space_group_name_H-M   'P 1'
_cell_length_a   3.97936400
_cell_length_b   6.89566667
_cell_length_c   7.66643046
_cell_angle_alpha   116.23305029
_cell_angle_beta   105.04227878
_cell_angle_gamma   90.00000000
_symmetry_Int_Tables_number   1
_chemical_formula_structural   Cd2GaCuS4
_chemical_formula_sum   'Cd2 Ga1 Cu1 S4'
_cell_volume   180.63132240
_cell_formula_units_Z   1
loop_
 _symmetry_equiv_pos_site_id
 _symmetry_equiv_pos_as_xyz
  1  'x, y, z'
loop_
 _atom_site_type_symbol
 _atom_site_label
 _atom_site_symmetry_multiplicity
 _atom_site_fract_x
 _atom_site_fract_y
 _atom_site_fract_z
 _atom_site_occupancy
  Cd  Cd0  1  0.99524200  0.33891700  0.99048400  1.0
  Cd  Cd1  1  0.49864700  0.82451600  0.99729400  1.0
  Ga  Ga2  1  0.75183300  0.40678700  0.50366600  1.0
  Cu  Cu3  1  0.25078300  0.92450700  0.50156600  1.0
  S  S4  1  0.07509800  0.74312500  0.15019600  1.0
  S  S5  1  0.57500600  0.24104000  0.15001200  1.0
  S  S6  1  0.80248200  0.13430600  0.60496400  1.0
  S  S7  1  0.30069400  0.63680300  0.60138800  1.0
