# generated using pymatgen
data_Cd2InCuSe4
_symmetry_space_group_name_H-M   'P 1'
_cell_length_a   4.26800600
_cell_length_b   7.40441196
_cell_length_c   8.19481414
_cell_angle_alpha   116.77619742
_cell_angle_beta   105.09432957
_cell_angle_gamma   90.00000000
_symmetry_Int_Tables_number   1
_chemical_formula_structural   Cd2InCuSe4
_chemical_formula_sum   'Cd2 In1 Cu1 Se4'
_cell_volume   221.15014758
_cell_formula_units_Z   1
loop_
 _symmetry_equiv_pos_site_id
 _symmetry_equiv_pos_as_xyz
  1  'x, y, z'
loop_
 _atom_site_type_symbol
 _atom_site_label
 _atom_site_symmetry_multiplicity
 _atom_site_fract_x
 _atom_site_fract_y
 _atom_site_fract_z
 _atom_site_occupancy
  Cd  Cd0  1  0.49899400  0.17573200  0.99798800  1.0
  Cd  Cd1  1  0.00485900  0.65874700  0.00971800  1.0
  In  In2  1  0.24674200  0.59097300  0.49348400  1.0
  Cu  Cu3  1  0.75042400  0.07427900  0.50084800  1.0
  Se  Se4  1  0.92600900  0.25844400  0.85201800  1.0
  Se  Se5  1  0.43650100  0.77027100  0.87300200  1.0
  Se  Se6  1  0.19549500  0.88312300  0.39099000  1.0
  Se  Se7  1  0.69361400  0.33843100  0.38722800  1.0
