# generated using pymatgen
data_Cd3Pb
_symmetry_space_group_name_H-M   'P 1'
_cell_length_a   5.34787600
_cell_length_b   6.67665000
_cell_length_c   6.67664956
_cell_angle_alpha   120.00000220
_cell_angle_beta   90.00000000
_cell_angle_gamma   90.00000000
_symmetry_Int_Tables_number   1
_chemical_formula_structural   Cd3Pb
_chemical_formula_sum   'Cd6 Pb2'
_cell_volume   206.45677708
_cell_formula_units_Z   2
loop_
 _symmetry_equiv_pos_site_id
 _symmetry_equiv_pos_as_xyz
  1  'x, y, z'
loop_
 _atom_site_type_symbol
 _atom_site_label
 _atom_site_symmetry_multiplicity
 _atom_site_fract_x
 _atom_site_fract_y
 _atom_site_fract_z
 _atom_site_occupancy
  Cd  Cd0  1  0.25000000  0.16057500  0.32115000  1.0
  Cd  Cd1  1  0.25000000  0.67885000  0.83942500  1.0
  Cd  Cd2  1  0.25000000  0.16057500  0.83942500  1.0
  Cd  Cd3  1  0.75000000  0.83942500  0.67885000  1.0
  Cd  Cd4  1  0.75000000  0.32115000  0.16057500  1.0
  Cd  Cd5  1  0.75000000  0.83942500  0.16057500  1.0
  Pb  Pb6  1  0.75000000  0.33333333  0.66666667  1.0
  Pb  Pb7  1  0.25000000  0.66666667  0.33333333  1.0
