# generated using pymatgen
data_CdFe4NiO8
_symmetry_space_group_name_H-M   'P 1'
_cell_length_a   6.13991792
_cell_length_b   6.13991792
_cell_length_c   6.14066796
_cell_angle_alpha   60.00404105
_cell_angle_beta   60.00404105
_cell_angle_gamma   60.00000087
_symmetry_Int_Tables_number   1
_chemical_formula_structural   CdFe4NiO8
_chemical_formula_sum   'Cd1 Fe4 Ni1 O8'
_cell_volume   163.70135497
_cell_formula_units_Z   1
loop_
 _symmetry_equiv_pos_site_id
 _symmetry_equiv_pos_as_xyz
  1  'x, y, z'
loop_
 _atom_site_type_symbol
 _atom_site_label
 _atom_site_symmetry_multiplicity
 _atom_site_fract_x
 _atom_site_fract_y
 _atom_site_fract_z
 _atom_site_occupancy
  Cd  Cd0  1  0.24889800  0.24889800  0.25330600  1.0
  Fe  Fe1  1  0.00186600  0.00186600  0.99440200  1.0
  Fe  Fe2  1  0.13145400  0.62313400  0.62227800  1.0
  Fe  Fe3  1  0.62313400  0.62313400  0.62227800  1.0
  Fe  Fe4  1  0.62313400  0.13145400  0.62227800  1.0
  Ni  Ni5  1  0.62402300  0.62402300  0.12793100  1.0
  O  O6  1  0.39314500  0.87255700  0.86174100  1.0
  O  O7  1  0.87255700  0.87255700  0.86174100  1.0
  O  O8  1  0.87255700  0.39314500  0.86174100  1.0
  O  O9  1  0.86821800  0.86821800  0.39534600  1.0
  O  O10  1  0.82368400  0.38821000  0.39989600  1.0
  O  O11  1  0.38821000  0.38821000  0.39989600  1.0
  O  O12  1  0.38821000  0.82368400  0.39989600  1.0
  O  O13  1  0.39090900  0.39090900  0.82727300  1.0
