# generated using pymatgen
data_CdHgSe2
_symmetry_space_group_name_H-M   'P 1'
_cell_length_a   4.41478404
_cell_length_b   4.41478404
_cell_length_c   7.64237373
_cell_angle_alpha   73.21172070
_cell_angle_beta   73.21172070
_cell_angle_gamma   59.99999943
_symmetry_Int_Tables_number   1
_chemical_formula_structural   CdHgSe2
_chemical_formula_sum   'Cd1 Hg1 Se2'
_cell_volume   121.61056698
_cell_formula_units_Z   1
loop_
 _symmetry_equiv_pos_site_id
 _symmetry_equiv_pos_as_xyz
  1  'x, y, z'
loop_
 _atom_site_type_symbol
 _atom_site_label
 _atom_site_symmetry_multiplicity
 _atom_site_fract_x
 _atom_site_fract_y
 _atom_site_fract_z
 _atom_site_occupancy
  Cd  Cd0  1  0.49977800  0.49977800  0.50066600  1.0
  Hg  Hg1  1  0.00009900  0.00009900  0.99970300  1.0
  Se  Se2  1  0.12578400  0.12578400  0.62264800  1.0
  Se  Se3  1  0.62433800  0.62433800  0.12698600  1.0
