# generated using pymatgen
data_CdI2
_symmetry_space_group_name_H-M   'P 1'
_cell_length_a   4.33334400
_cell_length_b   4.33334401
_cell_length_c   37.01754000
_cell_angle_alpha   90.00000000
_cell_angle_beta   90.00000000
_cell_angle_gamma   119.99999991
_symmetry_Int_Tables_number   1
_chemical_formula_structural   CdI2
_chemical_formula_sum   'Cd5 I10'
_cell_volume   601.98340694
_cell_formula_units_Z   5
loop_
 _symmetry_equiv_pos_site_id
 _symmetry_equiv_pos_as_xyz
  1  'x, y, z'
loop_
 _atom_site_type_symbol
 _atom_site_label
 _atom_site_symmetry_multiplicity
 _atom_site_fract_x
 _atom_site_fract_y
 _atom_site_fract_z
 _atom_site_occupancy
  Cd  Cd0  1  0.00000000  0.00000000  0.94997600  1.0
  Cd  Cd1  1  0.00000000  0.00000000  0.55003000  1.0
  Cd  Cd2  1  0.33333333  0.66666667  0.14999000  1.0
  Cd  Cd3  1  0.33333333  0.66666667  0.34995000  1.0
  Cd  Cd4  1  0.00000000  0.00000000  0.75006900  1.0
  I  I5  1  0.66666667  0.33333333  0.39655900  1.0
  I  I6  1  0.66666667  0.33333333  0.79671200  1.0
  I  I7  1  0.00000000  0.00000000  0.10336500  1.0
  I  I8  1  0.33333333  0.66666667  0.90334500  1.0
  I  I9  1  0.66666667  0.33333333  0.99658100  1.0
  I  I10  1  0.00000000  0.00000000  0.30332900  1.0
  I  I11  1  0.66666667  0.33333333  0.59666000  1.0
  I  I12  1  0.33333333  0.66666667  0.70342700  1.0
  I  I13  1  0.66666667  0.33333333  0.19662000  1.0
  I  I14  1  0.33333333  0.66666667  0.50338900  1.0
