# generated using pymatgen
data_Ce2Ge3Rh
_symmetry_space_group_name_H-M   'P 1'
_cell_length_a   4.07788000
_cell_length_b   4.28112400
_cell_length_c   8.03464073
_cell_angle_alpha   105.45114687
_cell_angle_beta   104.70063463
_cell_angle_gamma   90.00000000
_symmetry_Int_Tables_number   1
_chemical_formula_structural   Ce2Ge3Rh
_chemical_formula_sum   'Ce2 Ge3 Rh1'
_cell_volume   130.42842900
_cell_formula_units_Z   1
loop_
 _symmetry_equiv_pos_site_id
 _symmetry_equiv_pos_as_xyz
  1  'x, y, z'
loop_
 _atom_site_type_symbol
 _atom_site_label
 _atom_site_symmetry_multiplicity
 _atom_site_fract_x
 _atom_site_fract_y
 _atom_site_fract_z
 _atom_site_occupancy
  Ce  Ce0  1  0.87706900  0.87706900  0.75413800  1.0
  Ce  Ce1  1  0.12132100  0.62132100  0.24264200  1.0
  Ge  Ge2  1  0.29618800  0.29618800  0.59237600  1.0
  Ge  Ge3  1  0.46081500  0.46081500  0.92163000  1.0
  Ge  Ge4  1  0.70361200  0.20361200  0.40722400  1.0
  Rh  Rh5  1  0.54099400  0.04099400  0.08198800  1.0
