# generated using pymatgen
data_Ce2Zn2Cu5
_symmetry_space_group_name_H-M   'P 1'
_cell_length_a   5.21954850
_cell_length_b   5.21954850
_cell_length_c   12.98629147
_cell_angle_alpha   78.40667674
_cell_angle_beta   78.40667674
_cell_angle_gamma   59.99999365
_symmetry_Int_Tables_number   1
_chemical_formula_structural   Ce2Zn2Cu5
_chemical_formula_sum   'Ce4 Zn4 Cu10'
_cell_volume   298.03134886
_cell_formula_units_Z   2
loop_
 _symmetry_equiv_pos_site_id
 _symmetry_equiv_pos_as_xyz
  1  'x, y, z'
loop_
 _atom_site_type_symbol
 _atom_site_label
 _atom_site_symmetry_multiplicity
 _atom_site_fract_x
 _atom_site_fract_y
 _atom_site_fract_z
 _atom_site_occupancy
  Ce  Ce0  1  0.94425000  0.94425000  0.16725000  1.0
  Ce  Ce1  1  0.15205900  0.15205900  0.54382300  1.0
  Ce  Ce2  1  0.84794100  0.84794100  0.45617700  1.0
  Ce  Ce3  1  0.05575000  0.05575000  0.83275000  1.0
  Zn  Zn4  1  0.50000000  1.00000000  0.00000000  1.0
  Zn  Zn5  1  0.50000000  0.50000000  0.50000000  1.0
  Zn  Zn6  1  0.50000000  0.50000000  0.00000000  1.0
  Zn  Zn7  1  0.00000000  0.50000000  0.00000000  1.0
  Cu  Cu8  1  0.60863900  0.11087600  0.67184600  1.0
  Cu  Cu9  1  0.88912400  0.39136100  0.32815400  1.0
  Cu  Cu10  1  0.60863900  0.60863900  0.67184600  1.0
  Cu  Cu11  1  0.27701500  0.27701500  0.16895500  1.0
  Cu  Cu12  1  0.39136100  0.39136100  0.32815400  1.0
  Cu  Cu13  1  0.39136100  0.88912400  0.32815400  1.0
  Cu  Cu14  1  0.11087600  0.60863900  0.67184600  1.0
  Cu  Cu15  1  0.38881400  0.38881400  0.83355800  1.0
  Cu  Cu16  1  0.72298500  0.72298500  0.83104500  1.0
  Cu  Cu17  1  0.61118600  0.61118600  0.16644200  1.0
