# generated using pymatgen
data_Ce3SiPt5
_symmetry_space_group_name_H-M   'P 1'
_cell_length_a   7.34965600
_cell_length_b   8.34573849
_cell_length_c   7.49903800
_cell_angle_alpha   116.69708093
_cell_angle_beta   90.00000000
_cell_angle_gamma   116.12454813
_symmetry_Int_Tables_number   1
_chemical_formula_structural   Ce3SiPt5
_chemical_formula_sum   'Ce6 Si2 Pt10'
_cell_volume   357.56270453
_cell_formula_units_Z   2
loop_
 _symmetry_equiv_pos_site_id
 _symmetry_equiv_pos_as_xyz
  1  'x, y, z'
loop_
 _atom_site_type_symbol
 _atom_site_label
 _atom_site_symmetry_multiplicity
 _atom_site_fract_x
 _atom_site_fract_y
 _atom_site_fract_z
 _atom_site_occupancy
  Ce  Ce0  1  0.45193400  0.90386800  0.72994700  1.0
  Ce  Ce1  1  0.75000000  0.50000000  0.11638100  1.0
  Ce  Ce2  1  0.54806600  0.09613200  0.27005300  1.0
  Ce  Ce3  1  0.25000000  0.50000000  0.88361900  1.0
  Ce  Ce4  1  0.04806600  0.09613200  0.32607900  1.0
  Ce  Ce5  1  0.95193400  0.90386800  0.67392100  1.0
  Si  Si6  1  0.75000000  0.50000000  0.71608700  1.0
  Si  Si7  1  0.25000000  0.50000000  0.28391300  1.0
  Pt  Pt8  1  0.69015700  0.78828100  0.95757200  1.0
  Pt  Pt9  1  0.30984300  0.21171900  0.04242800  1.0
  Pt  Pt10  1  0.40187600  0.21171900  0.66929100  1.0
  Pt  Pt11  1  0.19015700  0.78828100  0.33070900  1.0
  Pt  Pt12  1  0.90187600  0.21171900  0.04242800  1.0
  Pt  Pt13  1  0.80984300  0.21171900  0.66929100  1.0
  Pt  Pt14  1  0.59812400  0.78828100  0.33070900  1.0
  Pt  Pt15  1  0.09812400  0.78828100  0.95757200  1.0
  Pt  Pt16  1  0.50000000  0.50000000  0.50000000  1.0
  Pt  Pt17  1  0.00000000  0.50000000  0.50000000  1.0
