# generated using pymatgen
data_Ce5Bi3
_symmetry_space_group_name_H-M   'P 1'
_cell_length_a   6.48753800
_cell_length_b   9.52742331
_cell_length_c   9.52742381
_cell_angle_alpha   120.00000389
_cell_angle_beta   90.00000000
_cell_angle_gamma   90.00000000
_symmetry_Int_Tables_number   1
_chemical_formula_structural   Ce5Bi3
_chemical_formula_sum   'Ce10 Bi6'
_cell_volume   509.98978284
_cell_formula_units_Z   2
loop_
 _symmetry_equiv_pos_site_id
 _symmetry_equiv_pos_as_xyz
  1  'x, y, z'
loop_
 _atom_site_type_symbol
 _atom_site_label
 _atom_site_symmetry_multiplicity
 _atom_site_fract_x
 _atom_site_fract_y
 _atom_site_fract_z
 _atom_site_occupancy
  Ce  Ce0  1  1.00000000  0.33333333  0.66666667  1.0
  Ce  Ce1  1  0.00000000  0.66666667  0.33333333  1.0
  Ce  Ce2  1  0.50000000  0.66666667  0.33333333  1.0
  Ce  Ce3  1  0.50000000  0.33333333  0.66666667  1.0
  Ce  Ce4  1  0.25000000  0.25217300  0.00000000  1.0
  Ce  Ce5  1  0.25000000  0.74782700  0.74782700  1.0
  Ce  Ce6  1  0.25000000  1.00000000  0.25217300  1.0
  Ce  Ce7  1  0.75000000  0.74782700  1.00000000  1.0
  Ce  Ce8  1  0.75000000  0.25217300  0.25217300  1.0
  Ce  Ce9  1  0.75000000  1.00000000  0.74782700  1.0
  Bi  Bi10  1  0.25000000  0.61395800  1.00000000  1.0
  Bi  Bi11  1  0.25000000  0.38604200  0.38604200  1.0
  Bi  Bi12  1  0.25000000  0.00000000  0.61395800  1.0
  Bi  Bi13  1  0.75000000  0.38604200  1.00000000  1.0
  Bi  Bi14  1  0.75000000  0.61395800  0.61395800  1.0
  Bi  Bi15  1  0.75000000  0.00000000  0.38604200  1.0
