# generated using pymatgen
data_CeAg(PSe3)2
_symmetry_space_group_name_H-M   'P 1'
_cell_length_a   6.76337200
_cell_length_b   7.50101000
_cell_length_c   9.97029479
_cell_angle_alpha   90.00000000
_cell_angle_beta   91.94611465
_cell_angle_gamma   90.00000000
_symmetry_Int_Tables_number   1
_chemical_formula_structural   CeAg(PSe3)2
_chemical_formula_sum   'Ce2 Ag2 P4 Se12'
_cell_volume   505.52245191
_cell_formula_units_Z   2
loop_
 _symmetry_equiv_pos_site_id
 _symmetry_equiv_pos_as_xyz
  1  'x, y, z'
loop_
 _atom_site_type_symbol
 _atom_site_label
 _atom_site_symmetry_multiplicity
 _atom_site_fract_x
 _atom_site_fract_y
 _atom_site_fract_z
 _atom_site_occupancy
  Ce  Ce0  1  0.03940800  0.86178100  0.75532600  1.0
  Ce  Ce1  1  0.53940800  0.13821900  0.25532600  1.0
  Ag  Ag2  1  0.45011500  0.32214900  0.73906500  1.0
  Ag  Ag3  1  0.95011500  0.67785100  0.23906500  1.0
  P  P4  1  0.93524800  0.35898700  0.56494300  1.0
  P  P5  1  0.56647700  0.85611300  0.93829000  1.0
  P  P6  1  0.06647700  0.14388700  0.43829000  1.0
  P  P7  1  0.43524800  0.64101300  0.06494300  1.0
  Se  Se8  1  0.18552200  0.54736500  0.58496800  1.0
  Se  Se9  1  0.33982000  0.07184100  0.93825000  1.0
  Se  Se10  1  0.83982000  0.92815900  0.43825000  1.0
  Se  Se11  1  0.68552200  0.45263500  0.08496800  1.0
  Se  Se12  1  0.68501000  0.46182500  0.44223500  1.0
  Se  Se13  1  0.83832300  0.95898800  0.04270400  1.0
  Se  Se14  1  0.33832300  0.04101200  0.54270400  1.0
  Se  Se15  1  0.18501000  0.53817500  0.94223500  1.0
  Se  Se16  1  0.85512000  0.23467200  0.75948400  1.0
  Se  Se17  1  0.61615700  0.73159300  0.74122500  1.0
  Se  Se18  1  0.11615700  0.26840700  0.24122500  1.0
  Se  Se19  1  0.35512000  0.76532800  0.25948400  1.0
