# generated using pymatgen
data_CeAl4Ge2Au
_symmetry_space_group_name_H-M   'P 1'
_cell_length_a   4.26442822
_cell_length_b   4.26442822
_cell_length_c   10.77492230
_cell_angle_alpha   78.58659104
_cell_angle_beta   78.58659104
_cell_angle_gamma   59.99999661
_symmetry_Int_Tables_number   1
_chemical_formula_structural   CeAl4Ge2Au
_chemical_formula_sum   'Ce1 Al4 Ge2 Au1'
_cell_volume   165.20452326
_cell_formula_units_Z   1
loop_
 _symmetry_equiv_pos_site_id
 _symmetry_equiv_pos_as_xyz
  1  'x, y, z'
loop_
 _atom_site_type_symbol
 _atom_site_label
 _atom_site_symmetry_multiplicity
 _atom_site_fract_x
 _atom_site_fract_y
 _atom_site_fract_z
 _atom_site_occupancy
  Ce  Ce0  1  0.50000000  0.50000000  0.50000000  1.0
  Al  Al1  1  0.91654600  0.91654600  0.25036200  1.0
  Al  Al2  1  0.69236600  0.69236600  0.92290200  1.0
  Al  Al3  1  0.08345400  0.08345400  0.74963800  1.0
  Al  Al4  1  0.30763400  0.30763400  0.07709800  1.0
  Ge  Ge5  1  0.77632800  0.77632800  0.67101600  1.0
  Ge  Ge6  1  0.22367200  0.22367200  0.32898500  1.0
  Au  Au7  1  0.00000000  0.00000000  0.00000000  1.0
