# generated using pymatgen
data_CeCo3
_symmetry_space_group_name_H-M   'P 1'
_cell_length_a   4.89405218
_cell_length_b   4.89405218
_cell_length_c   8.79893427
_cell_angle_alpha   73.85287545
_cell_angle_beta   73.85287545
_cell_angle_gamma   59.99999759
_symmetry_Int_Tables_number   1
_chemical_formula_structural   CeCo3
_chemical_formula_sum   'Ce3 Co9'
_cell_volume   172.84798598
_cell_formula_units_Z   3
loop_
 _symmetry_equiv_pos_site_id
 _symmetry_equiv_pos_as_xyz
  1  'x, y, z'
loop_
 _atom_site_type_symbol
 _atom_site_label
 _atom_site_symmetry_multiplicity
 _atom_site_fract_x
 _atom_site_fract_y
 _atom_site_fract_z
 _atom_site_occupancy
  Ce  Ce0  1  0.86108300  0.86108300  0.41675100  1.0
  Ce  Ce1  1  0.13891700  0.13891700  0.58324900  1.0
  Ce  Ce2  1  0.00000000  0.00000000  0.00000000  1.0
  Co  Co3  1  0.33189600  0.33189600  0.00431200  1.0
  Co  Co4  1  0.42066200  0.42066200  0.24173400  1.0
  Co  Co5  1  0.57933800  0.57933800  0.75826600  1.0
  Co  Co6  1  0.66810400  0.66810400  0.99568800  1.0
  Co  Co7  1  0.57933800  0.08305800  0.75826600  1.0
  Co  Co8  1  0.91694200  0.42066200  0.24173400  1.0
  Co  Co9  1  0.42066200  0.91694200  0.24173400  1.0
  Co  Co10  1  0.50000000  0.50000000  0.50000000  1.0
  Co  Co11  1  0.08305800  0.57933800  0.75826600  1.0
