# generated using pymatgen
data_CeDy4S7
_symmetry_space_group_name_H-M   'P 1'
_cell_length_a   3.82999600
_cell_length_b   6.78346027
_cell_length_c   11.69990061
_cell_angle_alpha   104.09218788
_cell_angle_beta   90.00000000
_cell_angle_gamma   106.39776316
_symmetry_Int_Tables_number   1
_chemical_formula_structural   CeDy4S7
_chemical_formula_sum   'Ce1 Dy4 S7'
_cell_volume   282.05808111
_cell_formula_units_Z   1
loop_
 _symmetry_equiv_pos_site_id
 _symmetry_equiv_pos_as_xyz
  1  'x, y, z'
loop_
 _atom_site_type_symbol
 _atom_site_label
 _atom_site_symmetry_multiplicity
 _atom_site_fract_x
 _atom_site_fract_y
 _atom_site_fract_z
 _atom_site_occupancy
  Ce  Ce0  1  0.11265000  0.22530000  0.42060300  1.0
  Dy  Dy1  1  0.30025100  0.60050200  0.18546100  1.0
  Dy  Dy2  1  0.69911500  0.39823000  0.81313400  1.0
  Dy  Dy3  1  0.99976000  0.99952000  0.99798100  1.0
  Dy  Dy4  1  0.88648100  0.77296100  0.58157100  1.0
  S  S5  1  0.26243100  0.52486200  0.65436900  1.0
  S  S6  1  0.74686900  0.49373800  0.34891600  1.0
  S  S7  1  0.65779700  0.31559400  0.04984900  1.0
  S  S8  1  0.34071900  0.68143800  0.94926200  1.0
  S  S9  1  0.95530000  0.91060000  0.20963000  1.0
  S  S10  1  0.04274100  0.08548200  0.78525400  1.0
  S  S11  1  0.49588700  0.99177400  0.50396900  1.0
