# generated using pymatgen
data_CeEr4S7
_symmetry_space_group_name_H-M   'P 1'
_cell_length_a   3.80074200
_cell_length_b   6.74242460
_cell_length_c   11.63977412
_cell_angle_alpha   104.02535551
_cell_angle_beta   90.00000000
_cell_angle_gamma   106.37081453
_symmetry_Int_Tables_number   1
_chemical_formula_structural   CeEr4S7
_chemical_formula_sum   'Ce1 Er4 S7'
_cell_volume   276.90994664
_cell_formula_units_Z   1
loop_
 _symmetry_equiv_pos_site_id
 _symmetry_equiv_pos_as_xyz
  1  'x, y, z'
loop_
 _atom_site_type_symbol
 _atom_site_label
 _atom_site_symmetry_multiplicity
 _atom_site_fract_x
 _atom_site_fract_y
 _atom_site_fract_z
 _atom_site_occupancy
  Ce  Ce0  1  0.11248500  0.22497000  0.42071000  1.0
  Er  Er1  1  0.30019700  0.60039400  0.18628800  1.0
  Er  Er2  1  0.69923400  0.39846800  0.81326900  1.0
  Er  Er3  1  0.88670700  0.77341400  0.58099100  1.0
  Er  Er4  1  0.99998500  0.99997000  0.99822200  1.0
  S  S5  1  0.95414200  0.90828400  0.20872700  1.0
  S  S6  1  0.04290400  0.08580800  0.78534200  1.0
  S  S7  1  0.65788500  0.31577000  0.05033000  1.0
  S  S8  1  0.34092600  0.68185200  0.94914400  1.0
  S  S9  1  0.26328700  0.52657400  0.65356600  1.0
  S  S10  1  0.74768000  0.49536000  0.34933700  1.0
  S  S11  1  0.49456700  0.98913400  0.50407300  1.0
