# generated using pymatgen
data_CeFeSi2
_symmetry_space_group_name_H-M   'P 1'
_cell_length_a   4.02242400
_cell_length_b   4.07214600
_cell_length_c   8.49885493
_cell_angle_alpha   103.86117895
_cell_angle_beta   90.00000000
_cell_angle_gamma   90.00000000
_symmetry_Int_Tables_number   1
_chemical_formula_structural   CeFeSi2
_chemical_formula_sum   'Ce2 Fe2 Si4'
_cell_volume   135.15643355
_cell_formula_units_Z   2
loop_
 _symmetry_equiv_pos_site_id
 _symmetry_equiv_pos_as_xyz
  1  'x, y, z'
loop_
 _atom_site_type_symbol
 _atom_site_label
 _atom_site_symmetry_multiplicity
 _atom_site_fract_x
 _atom_site_fract_y
 _atom_site_fract_z
 _atom_site_occupancy
  Ce  Ce0  1  0.75000000  0.39016100  0.78032200  1.0
  Ce  Ce1  1  0.25000000  0.60983900  0.21967800  1.0
  Fe  Fe2  1  0.75000000  0.74970200  0.49940400  1.0
  Fe  Fe3  1  0.25000000  0.25029800  0.50059600  1.0
  Si  Si4  1  0.75000000  0.03645400  0.07290800  1.0
  Si  Si5  1  0.25000000  0.96354600  0.92709200  1.0
  Si  Si6  1  0.75000000  0.18531700  0.37063400  1.0
  Si  Si7  1  0.25000000  0.81468300  0.62936600  1.0
