# generated using pymatgen
data_CeMg5
_symmetry_space_group_name_H-M   'P 1'
_cell_length_a   3.13501600
_cell_length_b   6.63109769
_cell_length_c   7.72065944
_cell_angle_alpha   104.11943337
_cell_angle_beta   90.00000000
_cell_angle_gamma   103.67341989
_symmetry_Int_Tables_number   1
_chemical_formula_structural   CeMg5
_chemical_formula_sum   'Ce1 Mg5'
_cell_volume   150.95798161
_cell_formula_units_Z   1
loop_
 _symmetry_equiv_pos_site_id
 _symmetry_equiv_pos_as_xyz
  1  'x, y, z'
loop_
 _atom_site_type_symbol
 _atom_site_label
 _atom_site_symmetry_multiplicity
 _atom_site_fract_x
 _atom_site_fract_y
 _atom_site_fract_z
 _atom_site_occupancy
  Ce  Ce0  1  0.38750800  0.77501600  0.27412700  1.0
  Mg  Mg1  1  0.00561600  0.01123200  0.99460900  1.0
  Mg  Mg2  1  0.66248300  0.32496600  0.33642600  1.0
  Mg  Mg3  1  0.06043300  0.12086600  0.62034800  1.0
  Mg  Mg4  1  0.33364800  0.66729600  0.67193200  1.0
  Mg  Mg5  1  0.71697800  0.43395600  0.93589100  1.0
