# generated using pymatgen
data_CeMg3
_symmetry_space_group_name_H-M   'P 1'
_cell_length_a   5.18734500
_cell_length_b   6.81315400
_cell_length_c   6.81315448
_cell_angle_alpha   60.00000234
_cell_angle_beta   90.00000000
_cell_angle_gamma   90.00000000
_symmetry_Int_Tables_number   1
_chemical_formula_structural   CeMg3
_chemical_formula_sum   'Ce2 Mg6'
_cell_volume   208.53176377
_cell_formula_units_Z   2
loop_
 _symmetry_equiv_pos_site_id
 _symmetry_equiv_pos_as_xyz
  1  'x, y, z'
loop_
 _atom_site_type_symbol
 _atom_site_label
 _atom_site_symmetry_multiplicity
 _atom_site_fract_x
 _atom_site_fract_y
 _atom_site_fract_z
 _atom_site_occupancy
  Ce  Ce0  1  0.75000000  0.33333333  0.33333333  1.0
  Ce  Ce1  1  0.25000000  0.66666667  0.66666667  1.0
  Mg  Mg2  1  0.75000000  0.83661500  0.83661400  1.0
  Mg  Mg3  1  0.75000000  0.83661500  0.32677000  1.0
  Mg  Mg4  1  0.75000000  0.32677100  0.83661400  1.0
  Mg  Mg5  1  0.25000000  0.16338500  0.16338600  1.0
  Mg  Mg6  1  0.25000000  0.67322900  0.16338600  1.0
  Mg  Mg7  1  0.25000000  0.16338500  0.67323000  1.0
