# generated using pymatgen
data_CeSbSe
_symmetry_space_group_name_H-M   'P 1'
_cell_length_a   4.24557900
_cell_length_b   4.25827800
_cell_length_c   8.90127400
_cell_angle_alpha   90.00000000
_cell_angle_beta   90.00000000
_cell_angle_gamma   90.00000000
_symmetry_Int_Tables_number   1
_chemical_formula_structural   CeSbSe
_chemical_formula_sum   'Ce2 Sb2 Se2'
_cell_volume   160.92484777
_cell_formula_units_Z   2
loop_
 _symmetry_equiv_pos_site_id
 _symmetry_equiv_pos_as_xyz
  1  'x, y, z'
loop_
 _atom_site_type_symbol
 _atom_site_label
 _atom_site_symmetry_multiplicity
 _atom_site_fract_x
 _atom_site_fract_y
 _atom_site_fract_z
 _atom_site_occupancy
  Ce  Ce0  1  0.75000000  0.25000000  0.70583400  1.0
  Ce  Ce2  1  0.25000000  0.75000000  0.29416600  1.0
  Sb  Sb4  1  0.25000000  0.25000000  0.00029600  1.0
  Sb  Sb6  1  0.75000000  0.75000000  0.99970400  1.0
  Se  Se8  1  0.75000000  0.25000000  0.36646600  1.0
  Se  Se10  1  0.25000000  0.75000000  0.63353400  1.0
