# generated using pymatgen
data_CeYNi4
_symmetry_space_group_name_H-M   'P 1'
_cell_length_a   5.07789219
_cell_length_b   5.07789219
_cell_length_c   5.07789219
_cell_angle_alpha   60.00000000
_cell_angle_beta   60.00000000
_cell_angle_gamma   60.00000000
_symmetry_Int_Tables_number   1
_chemical_formula_structural   CeYNi4
_chemical_formula_sum   'Ce1 Y1 Ni4'
_cell_volume   92.58389130
_cell_formula_units_Z   1
loop_
 _symmetry_equiv_pos_site_id
 _symmetry_equiv_pos_as_xyz
  1  'x, y, z'
loop_
 _atom_site_type_symbol
 _atom_site_label
 _atom_site_symmetry_multiplicity
 _atom_site_fract_x
 _atom_site_fract_y
 _atom_site_fract_z
 _atom_site_occupancy
  Ce  Ce0  1  0.75000000  0.75000000  0.75000000  1.0
  Y  Y1  1  0.00000000  0.00000000  0.00000000  1.0
  Ni  Ni2  1  0.37497100  0.87508500  0.37497200  1.0
  Ni  Ni3  1  0.37497100  0.37497200  0.37497200  1.0
  Ni  Ni4  1  0.37497100  0.37497200  0.87508500  1.0
  Ni  Ni5  1  0.87508400  0.37497200  0.37497200  1.0
