# generated using pymatgen
data_CeZnAgAs2
_symmetry_space_group_name_H-M   'P 1'
_cell_length_a   4.33049800
_cell_length_b   4.33049776
_cell_length_c   6.91345500
_cell_angle_alpha   90.00000000
_cell_angle_beta   90.00000000
_cell_angle_gamma   120.00000184
_symmetry_Int_Tables_number   1
_chemical_formula_structural   CeZnAgAs2
_chemical_formula_sum   'Ce1 Zn1 Ag1 As2'
_cell_volume   112.27974685
_cell_formula_units_Z   1
loop_
 _symmetry_equiv_pos_site_id
 _symmetry_equiv_pos_as_xyz
  1  'x, y, z'
loop_
 _atom_site_type_symbol
 _atom_site_label
 _atom_site_symmetry_multiplicity
 _atom_site_fract_x
 _atom_site_fract_y
 _atom_site_fract_z
 _atom_site_occupancy
  Ce  Ce0  1  0.66666667  0.33333333  0.00842400  1.0
  Zn  Zn1  1  0.00000000  0.00000000  0.62802000  1.0
  Ag  Ag2  1  0.33333333  0.66666667  0.36268700  1.0
  As  As3  1  0.33333333  0.66666667  0.75651800  1.0
  As  As4  1  0.00000000  0.00000000  0.24435000  1.0
