# generated using pymatgen
data_CeZr4O10
_symmetry_space_group_name_H-M   'P 1'
_cell_length_a   3.68158000
_cell_length_b   3.68158000
_cell_length_c   13.32896707
_cell_angle_alpha   97.93817520
_cell_angle_beta   97.93817520
_cell_angle_gamma   90.00000000
_symmetry_Int_Tables_number   1
_chemical_formula_structural   CeZr4O10
_chemical_formula_sum   'Ce1 Zr4 O10'
_cell_volume   177.18201088
_cell_formula_units_Z   1
loop_
 _symmetry_equiv_pos_site_id
 _symmetry_equiv_pos_as_xyz
  1  'x, y, z'
loop_
 _atom_site_type_symbol
 _atom_site_label
 _atom_site_symmetry_multiplicity
 _atom_site_fract_x
 _atom_site_fract_y
 _atom_site_fract_z
 _atom_site_occupancy
  Ce  Ce0  1  0.00000000  0.00000000  0.00000000  1.0
  Zr  Zr1  1  0.39721300  0.39721300  0.79442600  1.0
  Zr  Zr2  1  0.79902600  0.79902600  0.59805200  1.0
  Zr  Zr3  1  0.20097400  0.20097400  0.40194800  1.0
  Zr  Zr4  1  0.60278700  0.60278700  0.20557400  1.0
  O  O5  1  0.65191500  0.15191500  0.30383000  1.0
  O  O6  1  0.05400600  0.55400600  0.10801200  1.0
  O  O7  1  0.44599400  0.94599400  0.89198800  1.0
  O  O8  1  0.84808500  0.34808500  0.69617000  1.0
  O  O9  1  0.25000000  0.75000000  0.50000000  1.0
  O  O10  1  0.55400600  0.05400600  0.10801200  1.0
  O  O11  1  0.94599400  0.44599400  0.89198800  1.0
  O  O12  1  0.34808500  0.84808500  0.69617000  1.0
  O  O13  1  0.75000000  0.25000000  0.50000000  1.0
  O  O14  1  0.15191500  0.65191500  0.30383000  1.0
