# generated using pymatgen
data_Co(AsO3)2
_symmetry_space_group_name_H-M   'P 1'
_cell_length_a   4.55573400
_cell_length_b   4.86098570
_cell_length_c   4.86098520
_cell_angle_alpha   119.99929837
_cell_angle_beta   90.00019796
_cell_angle_gamma   90.00020974
_symmetry_Int_Tables_number   1
_chemical_formula_structural   Co(AsO3)2
_chemical_formula_sum   'Co1 As2 O6'
_cell_volume   93.22678398
_cell_formula_units_Z   1
loop_
 _symmetry_equiv_pos_site_id
 _symmetry_equiv_pos_as_xyz
  1  'x, y, z'
loop_
 _atom_site_type_symbol
 _atom_site_label
 _atom_site_symmetry_multiplicity
 _atom_site_fract_x
 _atom_site_fract_y
 _atom_site_fract_z
 _atom_site_occupancy
  As  As2  1  0.50000000  0.66666667  0.33333333  1.0
  As  As4  1  0.50000000  0.33333333  0.66666667  1.0
  Co  Co0  1  0.00000000  0.99999900  0.99999900  1.0
  O  O6  1  0.72569000  0.63722600  0.63722600  1.0
  O  O8  1  0.27430800  0.63722000  0.99999400  1.0
  O  O10  1  0.27430800  0.99999400  0.63722000  1.0
  O  O12  1  0.72569200  0.36278000  0.00000600  1.0
  O  O14  1  0.27431000  0.36277500  0.36277500  1.0
  O  O16  1  0.72569200  0.00000600  0.36278000  1.0
