# generated using pymatgen
data_Co(HO)2
_symmetry_space_group_name_H-M   'P 1'
_cell_length_a   3.20343106
_cell_length_b   3.21687437
_cell_length_c   4.74826413
_cell_angle_alpha   90.38073484
_cell_angle_beta   90.17968043
_cell_angle_gamma   119.80510725
_symmetry_Int_Tables_number   1
_chemical_formula_structural   Co(HO)2
_chemical_formula_sum   'Co1 H2 O2'
_cell_volume   42.45638255
_cell_formula_units_Z   1
loop_
 _symmetry_equiv_pos_site_id
 _symmetry_equiv_pos_as_xyz
  1  'x, y, z'
loop_
 _atom_site_type_symbol
 _atom_site_label
 _atom_site_symmetry_multiplicity
 _atom_site_fract_x
 _atom_site_fract_y
 _atom_site_fract_z
 _atom_site_occupancy
  Co  Co0  1  0.93953650  0.93932050  0.99997400  1.0
  H  H4  1  0.60372950  0.26304550  0.42416900  1.0
  H  H8  1  0.26486375  0.60616525  0.57580600  1.0
  O  O12  1  0.60778325  0.26929400  0.21928150  1.0
  O  O16  1  0.27013850  0.60822725  0.78076950  1.0
