# generated using pymatgen
data_Co2NiO4
_symmetry_space_group_name_H-M   'P 1'
_cell_length_a   5.71882111
_cell_length_b   5.72154157
_cell_length_c   5.85919133
_cell_angle_alpha   112.79974329
_cell_angle_beta   117.21651638
_cell_angle_gamma   97.64524467
_symmetry_Int_Tables_number   1
_chemical_formula_structural   Co2NiO4
_chemical_formula_sum   'Co4 Ni2 O8'
_cell_volume   145.47727158
_cell_formula_units_Z   2
loop_
 _symmetry_equiv_pos_site_id
 _symmetry_equiv_pos_as_xyz
  1  'x, y, z'
loop_
 _atom_site_type_symbol
 _atom_site_label
 _atom_site_symmetry_multiplicity
 _atom_site_fract_x
 _atom_site_fract_y
 _atom_site_fract_z
 _atom_site_occupancy
  Co  Co0  1  0.12498900  0.37500100  0.74996100  1.0
  Co  Co1  1  0.62499600  0.37495700  0.25001400  1.0
  Co  Co2  1  0.62496100  0.87489600  0.24993700  1.0
  Co  Co3  1  0.62498900  0.37503900  0.75001800  1.0
  Ni  Ni4  1  0.27726900  0.77843300  0.50045100  1.0
  Ni  Ni5  1  0.97301800  0.97210800  0.99962000  1.0
  O  O6  1  0.39803500  0.10719400  0.26617100  1.0
  O  O7  1  0.85199600  0.64274000  0.23397700  1.0
  O  O8  1  0.84249300  0.13254600  0.73492700  1.0
  O  O9  1  0.86621100  0.58757400  0.70983100  1.0
  O  O10  1  0.87729400  0.15564100  0.28851600  1.0
  O  O11  1  0.40730900  0.61733600  0.76495500  1.0
  O  O12  1  0.38376000  0.16243700  0.79017100  1.0
  O  O13  1  0.37268000  0.59409600  0.21144700  1.0
