# generated using pymatgen
data_Co3(Ni3S4)2
_symmetry_space_group_name_H-M   'P 1'
_cell_length_a   7.01171610
_cell_length_b   7.01961822
_cell_length_c   7.01961822
_cell_angle_alpha   60.00355026
_cell_angle_beta   60.03723153
_cell_angle_gamma   60.03723153
_symmetry_Int_Tables_number   1
_chemical_formula_structural   Co3(Ni3S4)2
_chemical_formula_sum   'Co3 Ni6 S8'
_cell_volume   244.45118501
_cell_formula_units_Z   1
loop_
 _symmetry_equiv_pos_site_id
 _symmetry_equiv_pos_as_xyz
  1  'x, y, z'
loop_
 _atom_site_type_symbol
 _atom_site_label
 _atom_site_symmetry_multiplicity
 _atom_site_fract_x
 _atom_site_fract_y
 _atom_site_fract_z
 _atom_site_occupancy
  Co  Co0  1  0.50297600  0.49702400  0.49702400  1.0
  Co  Co1  1  0.87562900  0.87445100  0.87445000  1.0
  Co  Co2  1  0.37546900  0.87445100  0.87445100  1.0
  Ni  Ni3  1  0.87308200  0.38133600  0.87250000  1.0
  Ni  Ni4  1  0.87308200  0.87250000  0.38133600  1.0
  Ni  Ni5  1  0.12544000  0.12620100  0.12620100  1.0
  Ni  Ni6  1  0.62215800  0.12620100  0.12620100  1.0
  Ni  Ni7  1  0.12551000  0.62301000  0.12597100  1.0
  Ni  Ni8  1  0.12550900  0.12597100  0.62301100  1.0
  S  S9  1  0.73728900  0.73819600  0.25761800  1.0
  S  S10  1  0.73728900  0.25761900  0.73819500  1.0
  S  S11  1  0.26132500  0.73867500  0.73867500  1.0
  S  S12  1  0.26689600  0.25761900  0.73819600  1.0
  S  S13  1  0.26689600  0.73819600  0.25761900  1.0
  S  S14  1  0.73689900  0.26310100  0.26310100  1.0
  S  S15  1  0.74496700  0.75503300  0.75503300  1.0
  S  S16  1  0.24958200  0.25041800  0.25041800  1.0
