# generated using pymatgen
data_Co3P
_symmetry_space_group_name_H-M   'P 1'
_cell_length_a   4.37077800
_cell_length_b   6.65084576
_cell_length_c   6.65084576
_cell_angle_alpha   83.80168250
_cell_angle_beta   70.81689661
_cell_angle_gamma   70.81689659
_symmetry_Int_Tables_number   1
_chemical_formula_structural   Co3P
_chemical_formula_sum   'Co12 P4'
_cell_volume   172.46139022
_cell_formula_units_Z   4
loop_
 _symmetry_equiv_pos_site_id
 _symmetry_equiv_pos_as_xyz
  1  'x, y, z'
loop_
 _atom_site_type_symbol
 _atom_site_label
 _atom_site_symmetry_multiplicity
 _atom_site_fract_x
 _atom_site_fract_y
 _atom_site_fract_z
 _atom_site_occupancy
  Co  Co0  1  0.03013800  0.04954200  0.38653600  1.0
  Co  Co1  1  0.46621600  0.95045800  0.61346400  1.0
  Co  Co2  1  0.92032000  0.61346400  0.04954200  1.0
  Co  Co3  1  0.58332600  0.38653600  0.95045800  1.0
  Co  Co4  1  0.99509100  0.67040700  0.39706200  1.0
  Co  Co5  1  0.06256000  0.32959300  0.60293700  1.0
  Co  Co6  1  0.33450200  0.60293800  0.67040700  1.0
  Co  Co7  1  0.60784800  0.39706200  0.32959200  1.0
  Co  Co8  1  0.87331400  0.97485800  0.81359000  1.0
  Co  Co9  1  0.66176200  0.02514200  0.18641000  1.0
  Co  Co10  1  0.15182800  0.18641000  0.97485800  1.0
  Co  Co11  1  0.31309600  0.81359000  0.02514200  1.0
  P  P12  1  0.56507600  0.24440300  0.66169600  1.0
  P  P13  1  0.47117500  0.75559700  0.33830500  1.0
  P  P14  1  0.19052100  0.33830400  0.24440300  1.0
  P  P15  1  0.77322700  0.66169600  0.75559800  1.0
