# generated using pymatgen
data_Co4(CuO4)3
_symmetry_space_group_name_H-M   'P 1'
_cell_length_a   6.23666818
_cell_length_b   6.23955117
_cell_length_c   6.24766986
_cell_angle_alpha   70.85656116
_cell_angle_beta   70.99958159
_cell_angle_gamma   108.67103048
_symmetry_Int_Tables_number   1
_chemical_formula_structural   Co4(CuO4)3
_chemical_formula_sum   'Co4 Cu3 O12'
_cell_volume   190.75613686
_cell_formula_units_Z   1
loop_
 _symmetry_equiv_pos_site_id
 _symmetry_equiv_pos_as_xyz
  1  'x, y, z'
loop_
 _atom_site_type_symbol
 _atom_site_label
 _atom_site_symmetry_multiplicity
 _atom_site_fract_x
 _atom_site_fract_y
 _atom_site_fract_z
 _atom_site_occupancy
  Co  Co0  1  0.50010000  0.00012000  0.99993400  1.0
  Co  Co1  1  0.99995700  0.49992900  0.99996900  1.0
  Co  Co2  1  0.00000400  0.00003500  0.49999800  1.0
  Co  Co3  1  0.49998700  0.49984300  0.50003500  1.0
  Cu  Cu4  1  0.49997900  0.99974500  0.50016500  1.0
  Cu  Cu5  1  0.49985100  0.50005600  0.00019300  1.0
  Cu  Cu6  1  0.00021500  0.50024900  0.49992100  1.0
  O  O7  1  0.69138400  0.49966300  0.17358200  1.0
  O  O8  1  0.30856900  0.50024300  0.82651100  1.0
  O  O9  1  0.33338700  0.14356600  0.15654900  1.0
  O  O10  1  0.14383600  0.84368600  0.66730200  1.0
  O  O11  1  0.17213900  0.30642100  0.49891600  1.0
  O  O12  1  0.84398200  0.33205300  0.85654100  1.0
  O  O13  1  0.50255100  0.82512800  0.30916900  1.0
  O  O14  1  0.82780200  0.69372500  0.50105700  1.0
  O  O15  1  0.66666667  0.85650467  0.84349533  1.0
  O  O16  1  0.85601300  0.15615700  0.33278100  1.0
  O  O17  1  0.15615700  0.66817200  0.14308400  1.0
  O  O18  1  0.49740200  0.17468800  0.69081400  1.0
