# generated using pymatgen
data_CoF3
_symmetry_space_group_name_H-M   'P 1'
_cell_length_a   3.83526257
_cell_length_b   3.84021643
_cell_length_c   3.87151990
_cell_angle_alpha   89.85085906
_cell_angle_beta   89.76863942
_cell_angle_gamma   90.12078516
_symmetry_Int_Tables_number   1
_chemical_formula_structural   CoF3
_chemical_formula_sum   'Co1 F3'
_cell_volume   57.01988178
_cell_formula_units_Z   1
loop_
 _symmetry_equiv_pos_site_id
 _symmetry_equiv_pos_as_xyz
  1  'x, y, z'
loop_
 _atom_site_type_symbol
 _atom_site_label
 _atom_site_symmetry_multiplicity
 _atom_site_fract_x
 _atom_site_fract_y
 _atom_site_fract_z
 _atom_site_occupancy
  Co  Co0  1  0.00000050  0.99999850  0.99999850  1.0
  F  F2  1  0.00000350  0.99999650  0.50000100  1.0
  F  F4  1  0.99999700  0.50000200  0.99999450  1.0
  F  F6  1  0.49999900  0.00000300  0.00000500  1.0
