# generated using pymatgen
data_CoNiTe4
_symmetry_space_group_name_H-M   'P 1'
_cell_length_a   3.85576000
_cell_length_b   6.57806557
_cell_length_c   6.58895987
_cell_angle_alpha   61.07451154
_cell_angle_beta   72.98677305
_cell_angle_gamma   72.95773584
_symmetry_Int_Tables_number   1
_chemical_formula_structural   CoNiTe4
_chemical_formula_sum   'Co1 Ni1 Te4'
_cell_volume   137.55695309
_cell_formula_units_Z   1
loop_
 _symmetry_equiv_pos_site_id
 _symmetry_equiv_pos_as_xyz
  1  'x, y, z'
loop_
 _atom_site_type_symbol
 _atom_site_label
 _atom_site_symmetry_multiplicity
 _atom_site_fract_x
 _atom_site_fract_y
 _atom_site_fract_z
 _atom_site_occupancy
  Co  Co0  1  0.00000000  0.00000000  0.00000000  1.0
  Ni  Ni1  1  0.50000000  0.50000000  0.50000000  1.0
  Te  Te2  1  0.12085400  0.20649200  0.55180000  1.0
  Te  Te3  1  0.62014400  0.71773500  0.04197700  1.0
  Te  Te4  1  0.87914600  0.79350800  0.44820000  1.0
  Te  Te5  1  0.37985600  0.28226500  0.95802300  1.0
