# generated using pymatgen
data_CoSb3
_symmetry_space_group_name_H-M   'P 1'
_cell_length_a   7.89401728
_cell_length_b   7.89401728
_cell_length_c   7.89401728
_cell_angle_alpha   109.47122063
_cell_angle_beta   109.47122064
_cell_angle_gamma   109.47122064
_symmetry_Int_Tables_number   1
_chemical_formula_structural   CoSb3
_chemical_formula_sum   'Co4 Sb12'
_cell_volume   378.67996431
_cell_formula_units_Z   4
loop_
 _symmetry_equiv_pos_site_id
 _symmetry_equiv_pos_as_xyz
  1  'x, y, z'
loop_
 _atom_site_type_symbol
 _atom_site_label
 _atom_site_symmetry_multiplicity
 _atom_site_fract_x
 _atom_site_fract_y
 _atom_site_fract_z
 _atom_site_occupancy
  Co  Co0  1  0.50000000  0.00000000  0.00000000  1.0
  Co  Co1  1  0.00000000  0.00000000  0.50000000  1.0
  Co  Co2  1  0.00000000  0.50000000  0.00000000  1.0
  Co  Co3  1  0.50000000  0.50000000  0.50000000  1.0
  Sb  Sb4  1  0.50713800  0.84047133  0.66665800  1.0
  Sb  Sb5  1  0.84048000  0.66665800  0.50714667  1.0
  Sb  Sb6  1  0.66666667  0.50714667  0.84048867  1.0
  Sb  Sb7  1  0.15952000  0.66665800  0.82618667  1.0
  Sb  Sb8  1  0.33333333  0.49285333  0.15951133  1.0
  Sb  Sb9  1  0.15952000  0.33334200  0.49285333  1.0
  Sb  Sb10  1  0.33333333  0.17381333  0.84047133  1.0
  Sb  Sb11  1  0.66666667  0.82618667  0.15952867  1.0
  Sb  Sb12  1  0.84048000  0.33334200  0.17381333  1.0
  Sb  Sb13  1  0.17382200  0.84048867  0.33334200  1.0
  Sb  Sb14  1  0.82617800  0.15951133  0.66665800  1.0
  Sb  Sb15  1  0.49286200  0.15952867  0.33334200  1.0
