# generated using pymatgen
data_CoSi4Ni
_symmetry_space_group_name_H-M   'P 1'
_cell_length_a   3.81339584
_cell_length_b   3.81339584
_cell_length_c   6.60375912
_cell_angle_alpha   73.21812072
_cell_angle_beta   73.21812072
_cell_angle_gamma   60.00000275
_symmetry_Int_Tables_number   1
_chemical_formula_structural   CoSi4Ni
_chemical_formula_sum   'Co1 Si4 Ni1'
_cell_volume   78.40779643
_cell_formula_units_Z   1
loop_
 _symmetry_equiv_pos_site_id
 _symmetry_equiv_pos_as_xyz
  1  'x, y, z'
loop_
 _atom_site_type_symbol
 _atom_site_label
 _atom_site_symmetry_multiplicity
 _atom_site_fract_x
 _atom_site_fract_y
 _atom_site_fract_z
 _atom_site_occupancy
  Co  Co0  1  0.00000000  0.00000000  0.00000000  1.0
  Si  Si1  1  0.62668200  0.62668200  0.11995400  1.0
  Si  Si2  1  0.12331700  0.12331700  0.63004900  1.0
  Si  Si3  1  0.87668300  0.87668300  0.36995100  1.0
  Si  Si4  1  0.37331800  0.37331800  0.88004600  1.0
  Ni  Ni5  1  0.50000000  0.50000000  0.50000000  1.0
