# generated using pymatgen
data_Cr2(NiB2)3
_symmetry_space_group_name_H-M   'P 1'
_cell_length_a   2.94205700
_cell_length_b   2.95860400
_cell_length_c   10.17262470
_cell_angle_alpha   81.63840497
_cell_angle_beta   90.00000000
_cell_angle_gamma   90.00000000
_symmetry_Int_Tables_number   1
_chemical_formula_structural   Cr2(NiB2)3
_chemical_formula_sum   'Cr2 Ni3 B6'
_cell_volume   87.60516158
_cell_formula_units_Z   1
loop_
 _symmetry_equiv_pos_site_id
 _symmetry_equiv_pos_as_xyz
  1  'x, y, z'
loop_
 _atom_site_type_symbol
 _atom_site_label
 _atom_site_symmetry_multiplicity
 _atom_site_fract_x
 _atom_site_fract_y
 _atom_site_fract_z
 _atom_site_occupancy
  Cr  Cr0  1  1.00000000  0.00052600  0.99894800  1.0
  Cr  Cr1  1  1.00000000  0.38411300  0.23177400  1.0
  Ni  Ni2  1  1.00000000  0.61809200  0.76381600  1.0
  Ni  Ni3  1  0.50000000  0.19457100  0.61085800  1.0
  Ni  Ni4  1  0.50000000  0.80183600  0.39632800  1.0
  B  B5  1  0.50000000  0.45790900  0.08418200  1.0
  B  B6  1  0.50000000  0.54371500  0.91257000  1.0
  B  B7  1  1.00000000  0.27531500  0.44937000  1.0
  B  B8  1  1.00000000  0.72469000  0.55062000  1.0
  B  B9  1  0.50000000  0.08909900  0.82180200  1.0
  B  B10  1  0.50000000  0.91013400  0.17973200  1.0
