# generated using pymatgen
data_Cr2HgSe4
_symmetry_space_group_name_H-M   'P 1'
_cell_length_a   7.71211668
_cell_length_b   7.71211668
_cell_length_c   7.71211668
_cell_angle_alpha   60.00000000
_cell_angle_beta   60.00000000
_cell_angle_gamma   60.00000000
_symmetry_Int_Tables_number   1
_chemical_formula_structural   Cr2HgSe4
_chemical_formula_sum   'Cr4 Hg2 Se8'
_cell_volume   324.34393168
_cell_formula_units_Z   2
loop_
 _symmetry_equiv_pos_site_id
 _symmetry_equiv_pos_as_xyz
  1  'x, y, z'
loop_
 _atom_site_type_symbol
 _atom_site_label
 _atom_site_symmetry_multiplicity
 _atom_site_fract_x
 _atom_site_fract_y
 _atom_site_fract_z
 _atom_site_occupancy
  Cr  Cr0  1  0.37500000  0.87500000  0.87500000  1.0
  Cr  Cr1  1  0.87500000  0.87500000  0.37500000  1.0
  Cr  Cr2  1  0.87500000  0.87500000  0.87500000  1.0
  Cr  Cr3  1  0.87500000  0.37500000  0.87500000  1.0
  Hg  Hg4  1  0.50000000  0.50000000  0.50000000  1.0
  Hg  Hg5  1  0.25000000  0.25000000  0.25000000  1.0
  Se  Se6  1  0.07504100  0.64165300  0.64165300  1.0
  Se  Se7  1  0.64165400  0.64165300  0.07504000  1.0
  Se  Se8  1  0.67495900  0.10834700  0.10834700  1.0
  Se  Se9  1  0.64165400  0.07504000  0.64165300  1.0
  Se  Se10  1  0.64165400  0.64165300  0.64165300  1.0
  Se  Se11  1  0.10834600  0.67496000  0.10834700  1.0
  Se  Se12  1  0.10834600  0.10834700  0.10834700  1.0
  Se  Se13  1  0.10834600  0.10834700  0.67496000  1.0
