# generated using pymatgen
data_Cr2NiS4
_symmetry_space_group_name_H-M   'P 1'
_cell_length_a   3.13323400
_cell_length_b   5.68588506
_cell_length_c   6.30415910
_cell_angle_alpha   113.75030950
_cell_angle_beta   104.38908164
_cell_angle_gamma   90.00000000
_symmetry_Int_Tables_number   1
_chemical_formula_structural   Cr2NiS4
_chemical_formula_sum   'Cr2 Ni1 S4'
_cell_volume   98.93707601
_cell_formula_units_Z   1
loop_
 _symmetry_equiv_pos_site_id
 _symmetry_equiv_pos_as_xyz
  1  'x, y, z'
loop_
 _atom_site_type_symbol
 _atom_site_label
 _atom_site_symmetry_multiplicity
 _atom_site_fract_x
 _atom_site_fract_y
 _atom_site_fract_z
 _atom_site_occupancy
  Cr  Cr0  1  0.24118500  0.18444000  0.48237000  1.0
  Cr  Cr1  1  0.75881500  0.81556000  0.51763000  1.0
  Ni  Ni2  1  0.50000000  0.50000000  0.00000000  1.0
  S  S3  1  0.39164100  0.05692100  0.78328200  1.0
  S  S4  1  0.60835900  0.94307900  0.21671800  1.0
  S  S5  1  0.85772100  0.51781600  0.71544200  1.0
  S  S6  1  0.14227900  0.48218400  0.28455800  1.0
