# generated using pymatgen
data_Cr3P
_symmetry_space_group_name_H-M   'P 1'
_cell_length_a   4.49633400
_cell_length_b   6.81261017
_cell_length_c   6.81261017
_cell_angle_alpha   83.74805921
_cell_angle_beta   70.73117423
_cell_angle_gamma   70.73117424
_symmetry_Int_Tables_number   1
_chemical_formula_structural   Cr3P
_chemical_formula_sum   'Cr12 P4'
_cell_volume   185.95669482
_cell_formula_units_Z   4
loop_
 _symmetry_equiv_pos_site_id
 _symmetry_equiv_pos_as_xyz
  1  'x, y, z'
loop_
 _atom_site_type_symbol
 _atom_site_label
 _atom_site_symmetry_multiplicity
 _atom_site_fract_x
 _atom_site_fract_y
 _atom_site_fract_z
 _atom_site_occupancy
  Cr  Cr0  1  0.35934000  0.67121600  0.61195200  1.0
  Cr  Cr1  1  0.02870800  0.61195200  0.32878400  1.0
  Cr  Cr2  1  0.96944400  0.38804800  0.67121500  1.0
  Cr  Cr3  1  0.64250900  0.32878400  0.38804700  1.0
  Cr  Cr4  1  0.39786800  0.05601400  0.61126200  1.0
  Cr  Cr5  1  0.99087000  0.61126100  0.94398700  1.0
  Cr  Cr6  1  0.54611700  0.38873900  0.05601400  1.0
  Cr  Cr7  1  0.06514400  0.94398600  0.38873900  1.0
  Cr  Cr8  1  0.68888900  0.97444100  0.17666000  1.0
  Cr  Cr9  1  0.13445100  0.17666000  0.02555900  1.0
  Cr  Cr10  1  0.33667000  0.82334000  0.97444100  1.0
  Cr  Cr11  1  0.83999000  0.02555900  0.82334000  1.0
  P  P12  1  0.20618000  0.24535200  0.33516900  1.0
  P  P13  1  0.45865100  0.33516900  0.75464800  1.0
  P  P14  1  0.54846800  0.66483100  0.24535200  1.0
  P  P15  1  0.78670100  0.75464800  0.66483100  1.0
