# generated using pymatgen
data_Cr4CdFeS8
_symmetry_space_group_name_H-M   'P 1'
_cell_length_a   7.20559063
_cell_length_b   7.20559063
_cell_length_c   7.20559063
_cell_angle_alpha   60.00000000
_cell_angle_beta   60.00000000
_cell_angle_gamma   60.00000000
_symmetry_Int_Tables_number   1
_chemical_formula_structural   Cr4CdFeS8
_chemical_formula_sum   'Cr4 Cd1 Fe1 S8'
_cell_volume   264.54146673
_cell_formula_units_Z   1
loop_
 _symmetry_equiv_pos_site_id
 _symmetry_equiv_pos_as_xyz
  1  'x, y, z'
loop_
 _atom_site_type_symbol
 _atom_site_label
 _atom_site_symmetry_multiplicity
 _atom_site_fract_x
 _atom_site_fract_y
 _atom_site_fract_z
 _atom_site_occupancy
  Cr  Cr0  1  0.87462400  0.87462300  0.37613000  1.0
  Cr  Cr1  1  0.87462400  0.87462300  0.87462300  1.0
  Cr  Cr2  1  0.87462400  0.37613000  0.87462300  1.0
  Cr  Cr3  1  0.37613100  0.87462300  0.87462300  1.0
  Cd  Cd4  1  0.25000000  0.25000000  0.25000000  1.0
  Fe  Fe5  1  0.50000000  0.50000000  0.50000000  1.0
  S  S6  1  0.10884200  0.10884100  0.67347600  1.0
  S  S7  1  0.10884200  0.10884100  0.10884100  1.0
  S  S8  1  0.10884200  0.67347600  0.10884100  1.0
  S  S9  1  0.67347700  0.10884100  0.10884100  1.0
  S  S10  1  0.63319100  0.63319000  0.10042900  1.0
  S  S11  1  0.63319100  0.63319000  0.63319000  1.0
  S  S12  1  0.63319100  0.10042900  0.63319000  1.0
  S  S13  1  0.10043000  0.63319000  0.63319000  1.0
