# generated using pymatgen
data_Cr4CoNiS8
_symmetry_space_group_name_H-M   'P 1'
_cell_length_a   6.89400262
_cell_length_b   6.89400262
_cell_length_c   6.89400262
_cell_angle_alpha   60.00000000
_cell_angle_beta   60.00000000
_cell_angle_gamma   60.00000000
_symmetry_Int_Tables_number   1
_chemical_formula_structural   Cr4CoNiS8
_chemical_formula_sum   'Cr4 Co1 Ni1 S8'
_cell_volume   231.68575614
_cell_formula_units_Z   1
loop_
 _symmetry_equiv_pos_site_id
 _symmetry_equiv_pos_as_xyz
  1  'x, y, z'
loop_
 _atom_site_type_symbol
 _atom_site_label
 _atom_site_symmetry_multiplicity
 _atom_site_fract_x
 _atom_site_fract_y
 _atom_site_fract_z
 _atom_site_occupancy
  Cr  Cr0  1  0.87458400  0.87458300  0.37625000  1.0
  Cr  Cr1  1  0.87458400  0.87458300  0.87458300  1.0
  Cr  Cr2  1  0.87458400  0.37625000  0.87458300  1.0
  Cr  Cr3  1  0.37625100  0.87458300  0.87458300  1.0
  Co  Co4  1  0.25000000  0.25000000  0.25000000  1.0
  Ni  Ni5  1  0.50000000  0.50000000  0.50000000  1.0
  S  S6  1  0.11956800  0.11956700  0.64129800  1.0
  S  S7  1  0.11956800  0.11956700  0.11956700  1.0
  S  S8  1  0.11956800  0.64129800  0.11956700  1.0
  S  S9  1  0.64129900  0.11956700  0.11956700  1.0
  S  S10  1  0.63056200  0.63056200  0.10831400  1.0
  S  S11  1  0.63056200  0.63056200  0.63056200  1.0
  S  S12  1  0.63056200  0.10831400  0.63056200  1.0
  S  S13  1  0.10831400  0.63056200  0.63056200  1.0
