# generated using pymatgen
data_Cr4Cu3Te8
_symmetry_space_group_name_H-M   'P 1'
_cell_length_a   8.00712200
_cell_length_b   8.01226567
_cell_length_c   8.01226567
_cell_angle_alpha   60.12594966
_cell_angle_beta   60.02123405
_cell_angle_gamma   60.02123406
_symmetry_Int_Tables_number   1
_chemical_formula_structural   Cr4Cu3Te8
_chemical_formula_sum   'Cr4 Cu3 Te8'
_cell_volume   363.93464000
_cell_formula_units_Z   1
loop_
 _symmetry_equiv_pos_site_id
 _symmetry_equiv_pos_as_xyz
  1  'x, y, z'
loop_
 _atom_site_type_symbol
 _atom_site_label
 _atom_site_symmetry_multiplicity
 _atom_site_fract_x
 _atom_site_fract_y
 _atom_site_fract_z
 _atom_site_occupancy
  Cr  Cr0  1  0.99841100  0.24497900  0.24498000  1.0
  Cr  Cr1  1  0.50377500  0.75334100  0.23910900  1.0
  Cr  Cr2  1  0.50377500  0.23910900  0.75334100  1.0
  Cr  Cr3  1  0.51162900  0.24498000  0.24498000  1.0
  Cu  Cu4  1  0.87512200  0.62487800  0.62487800  1.0
  Cu  Cu5  1  0.11074200  0.38925800  0.38925800  1.0
  Cu  Cu6  1  0.12435700  0.87564300  0.87564300  1.0
  Te  Te7  1  0.74318600  0.49226600  0.02136300  1.0
  Te  Te8  1  0.27761000  0.49858700  0.49858800  1.0
  Te  Te9  1  0.74318500  0.02136400  0.49226600  1.0
  Te  Te10  1  0.72521400  0.49858800  0.49858800  1.0
  Te  Te11  1  0.25788400  0.00658600  0.00658600  1.0
  Te  Te12  1  0.72894400  0.00658600  0.00658600  1.0
  Te  Te13  1  0.26198300  0.48143100  0.99460300  1.0
  Te  Te14  1  0.26198300  0.99460300  0.48143100  1.0
