# generated using pymatgen
data_Cr4InAgS8
_symmetry_space_group_name_H-M   'P 1'
_cell_length_a   7.27502993
_cell_length_b   7.27502993
_cell_length_c   7.27502993
_cell_angle_alpha   60.00000644
_cell_angle_beta   60.00000000
_cell_angle_gamma   60.00000645
_symmetry_Int_Tables_number   1
_chemical_formula_structural   Cr4InAgS8
_chemical_formula_sum   'Cr4 In1 Ag1 S8'
_cell_volume   272.26348404
_cell_formula_units_Z   1
loop_
 _symmetry_equiv_pos_site_id
 _symmetry_equiv_pos_as_xyz
  1  'x, y, z'
loop_
 _atom_site_type_symbol
 _atom_site_label
 _atom_site_symmetry_multiplicity
 _atom_site_fract_x
 _atom_site_fract_y
 _atom_site_fract_z
 _atom_site_occupancy
  Cr  Cr0  1  0.37890800  0.86327600  0.37890800  1.0
  Cr  Cr1  1  0.37890800  0.37890800  0.37890800  1.0
  Cr  Cr2  1  0.37890800  0.37890800  0.86327600  1.0
  Cr  Cr3  1  0.86327600  0.37890800  0.37890800  1.0
  In  In4  1  0.00000000  0.00000000  0.00000000  1.0
  Ag  Ag5  1  0.75000000  0.75000000  0.75000000  1.0
  S  S6  1  0.14019500  0.57941700  0.14019400  1.0
  S  S7  1  0.14019500  0.14019400  0.14019400  1.0
  S  S8  1  0.14019500  0.14019400  0.57941700  1.0
  S  S9  1  0.57941800  0.14019400  0.14019400  1.0
  S  S10  1  0.60963900  0.17108300  0.60963900  1.0
  S  S11  1  0.60963900  0.60963900  0.60963900  1.0
  S  S12  1  0.60963900  0.60963900  0.17108300  1.0
  S  S13  1  0.17108300  0.60963900  0.60963900  1.0
