# generated using pymatgen
data_CrCoO4
_symmetry_space_group_name_H-M   'P 1'
_cell_length_a   5.04704560
_cell_length_b   5.04733873
_cell_length_c   6.39125891
_cell_angle_alpha   90.04437611
_cell_angle_beta   90.04301476
_cell_angle_gamma   66.92903562
_symmetry_Int_Tables_number   1
_chemical_formula_structural   CrCoO4
_chemical_formula_sum   'Cr2 Co2 O8'
_cell_volume   149.79015626
_cell_formula_units_Z   2
loop_
 _symmetry_equiv_pos_site_id
 _symmetry_equiv_pos_as_xyz
  1  'x, y, z'
loop_
 _atom_site_type_symbol
 _atom_site_label
 _atom_site_symmetry_multiplicity
 _atom_site_fract_x
 _atom_site_fract_y
 _atom_site_fract_z
 _atom_site_occupancy
  Cr  Cr0  1  0.35545500  0.35547500  0.74912100  1.0
  Cr  Cr1  1  0.64446700  0.64442900  0.25085500  1.0
  Co  Co2  1  0.00000900  0.00001000  0.50000000  1.0
  Co  Co3  1  0.00001200  0.00001300  0.00001400  1.0
  O  O4  1  0.24139300  0.24149200  0.54155400  1.0
  O  O5  1  0.75889800  0.75872500  0.04315300  1.0
  O  O6  1  0.24111900  0.24130000  0.95684700  1.0
  O  O7  1  0.75862200  0.75853000  0.45844200  1.0
  O  O8  1  0.27584500  0.78417500  0.25113300  1.0
  O  O9  1  0.78396500  0.27585600  0.25115100  1.0
  O  O10  1  0.72415000  0.21585700  0.74887200  1.0
  O  O11  1  0.21606300  0.72413900  0.74885500  1.0
