# generated using pymatgen
data_CrO2
_symmetry_space_group_name_H-M   'P 1'
_cell_length_a   4.32016211
_cell_length_b   5.02259513
_cell_length_c   5.50280200
_cell_angle_alpha   89.99780036
_cell_angle_beta   90.00149212
_cell_angle_gamma   89.97445550
_symmetry_Int_Tables_number   1
_chemical_formula_structural   CrO2
_chemical_formula_sum   'Cr4 O8'
_cell_volume   119.40212545
_cell_formula_units_Z   4
loop_
 _symmetry_equiv_pos_site_id
 _symmetry_equiv_pos_as_xyz
  1  'x, y, z'
loop_
 _atom_site_type_symbol
 _atom_site_label
 _atom_site_symmetry_multiplicity
 _atom_site_fract_x
 _atom_site_fract_y
 _atom_site_fract_z
 _atom_site_occupancy
  Cr  Cr0  1  0.50000600  0.24998800  0.35509400  1.0
  Cr  Cr1  1  0.99996200  0.75001500  0.14493400  1.0
  Cr  Cr2  1  0.50002500  0.75000900  0.64478800  1.0
  Cr  Cr3  1  0.00000500  0.24998700  0.85517200  1.0
  O  O4  1  0.23673700  0.08376300  0.11629000  1.0
  O  O5  1  0.26315300  0.58378100  0.38357300  1.0
  O  O6  1  0.73682400  0.91620800  0.38358400  1.0
  O  O7  1  0.76323300  0.41623800  0.11629500  1.0
  O  O8  1  0.76355700  0.91612900  0.88383800  1.0
  O  O9  1  0.73655300  0.41608700  0.61631100  1.0
  O  O10  1  0.26347600  0.08392700  0.61630000  1.0
  O  O11  1  0.23646900  0.58386900  0.88382100  1.0
