# generated using pymatgen
data_CrP2
_symmetry_space_group_name_H-M   'P 1'
_cell_length_a   3.00760400
_cell_length_b   4.35842034
_cell_length_c   6.38893851
_cell_angle_alpha   80.23937121
_cell_angle_beta   76.38621958
_cell_angle_gamma   69.81614558
_symmetry_Int_Tables_number   1
_chemical_formula_structural   CrP2
_chemical_formula_sum   'Cr2 P4'
_cell_volume   76.03840366
_cell_formula_units_Z   2
loop_
 _symmetry_equiv_pos_site_id
 _symmetry_equiv_pos_as_xyz
  1  'x, y, z'
loop_
 _atom_site_type_symbol
 _atom_site_label
 _atom_site_symmetry_multiplicity
 _atom_site_fract_x
 _atom_site_fract_y
 _atom_site_fract_z
 _atom_site_occupancy
  Cr  Cr0  1  0.15725300  0.39017400  0.29532000  1.0
  Cr  Cr1  1  0.84274700  0.60982600  0.70468000  1.0
  P  P2  1  0.85562500  0.26011500  0.02863500  1.0
  P  P3  1  0.14437500  0.73988500  0.97136500  1.0
  P  P4  1  0.60143400  0.19799500  0.59913700  1.0
  P  P5  1  0.39856600  0.80200500  0.40086300  1.0
