# generated using pymatgen
data_Cs2CoSe2
_symmetry_space_group_name_H-M   'P 1'
_cell_length_a   6.64562400
_cell_length_b   7.55896600
_cell_length_c   8.80683690
_cell_angle_alpha   115.41383758
_cell_angle_beta   112.16648527
_cell_angle_gamma   90.00000000
_symmetry_Int_Tables_number   1
_chemical_formula_structural   Cs2CoSe2
_chemical_formula_sum   'Cs4 Co2 Se4'
_cell_volume   363.05978495
_cell_formula_units_Z   2
loop_
 _symmetry_equiv_pos_site_id
 _symmetry_equiv_pos_as_xyz
  1  'x, y, z'
loop_
 _atom_site_type_symbol
 _atom_site_label
 _atom_site_symmetry_multiplicity
 _atom_site_fract_x
 _atom_site_fract_y
 _atom_site_fract_z
 _atom_site_occupancy
  Cs  Cs0  1  0.35415800  0.18102200  0.70831500  1.0
  Cs  Cs1  1  0.64584200  0.81897800  0.29168500  1.0
  Cs  Cs2  1  0.14584300  0.47270700  0.29168600  1.0
  Cs  Cs3  1  0.85415700  0.52729300  0.70831400  1.0
  Co  Co4  1  0.75000000  0.00000000  0.00000000  1.0
  Co  Co5  1  0.25000000  0.00000000  0.00000000  1.0
  Se  Se6  1  0.40870800  0.74476400  0.81741600  1.0
  Se  Se7  1  0.09129200  0.92734800  0.18258400  1.0
  Se  Se8  1  0.90870800  0.07265200  0.81741600  1.0
  Se  Se9  1  0.59129200  0.25523600  0.18258400  1.0
