# generated using pymatgen
data_Cs2Co3S4
_symmetry_space_group_name_H-M   'P 1'
_cell_length_a   5.41374000
_cell_length_b   9.12814649
_cell_length_c   9.12814649
_cell_angle_alpha   73.25716382
_cell_angle_beta   72.75003245
_cell_angle_gamma   72.75003245
_symmetry_Int_Tables_number   1
_chemical_formula_structural   Cs2Co3S4
_chemical_formula_sum   'Cs4 Co6 S8'
_cell_volume   401.39444003
_cell_formula_units_Z   2
loop_
 _symmetry_equiv_pos_site_id
 _symmetry_equiv_pos_as_xyz
  1  'x, y, z'
loop_
 _atom_site_type_symbol
 _atom_site_label
 _atom_site_symmetry_multiplicity
 _atom_site_fract_x
 _atom_site_fract_y
 _atom_site_fract_z
 _atom_site_occupancy
  Cs  Cs0  1  0.75586600  0.12434300  0.87565800  1.0
  Cs  Cs1  1  0.74413300  0.62434200  0.37565800  1.0
  Cs  Cs2  1  0.25586700  0.37565800  0.62434200  1.0
  Cs  Cs3  1  0.24413400  0.87565700  0.12434200  1.0
  Co  Co4  1  0.25000000  0.49713800  0.00286200  1.0
  Co  Co5  1  0.25000000  0.00286200  0.49713800  1.0
  Co  Co6  1  0.75000000  0.99713800  0.50286200  1.0
  Co  Co7  1  0.75000000  0.75000000  0.75000000  1.0
  Co  Co8  1  0.75000000  0.50286200  0.99713800  1.0
  Co  Co9  1  0.25000000  0.25000000  0.25000000  1.0
  S  S10  1  0.07819000  0.79635000  0.54472900  1.0
  S  S11  1  0.57818900  0.04473000  0.29635000  1.0
  S  S12  1  0.91926800  0.70365000  0.95527100  1.0
  S  S13  1  0.92181000  0.20365000  0.45527100  1.0
  S  S14  1  0.42181100  0.95527000  0.70365000  1.0
  S  S15  1  0.08073200  0.29635000  0.04472900  1.0
  S  S16  1  0.41926900  0.45527000  0.20365000  1.0
  S  S17  1  0.58073100  0.54473000  0.79635000  1.0
