# generated using pymatgen
data_Cs2GeSe4
_symmetry_space_group_name_H-M   'P 1'
_cell_length_a   7.84137200
_cell_length_b   8.74400286
_cell_length_c   9.96307307
_cell_angle_alpha   67.08416103
_cell_angle_beta   66.82618847
_cell_angle_gamma   63.35983964
_symmetry_Int_Tables_number   1
_chemical_formula_structural   Cs2GeSe4
_chemical_formula_sum   'Cs4 Ge2 Se8'
_cell_volume   542.15919193
_cell_formula_units_Z   2
loop_
 _symmetry_equiv_pos_site_id
 _symmetry_equiv_pos_as_xyz
  1  'x, y, z'
loop_
 _atom_site_type_symbol
 _atom_site_label
 _atom_site_symmetry_multiplicity
 _atom_site_fract_x
 _atom_site_fract_y
 _atom_site_fract_z
 _atom_site_occupancy
  Cs  Cs0  1  0.15876700  0.96740600  0.71506000  1.0
  Cs  Cs1  1  0.84123300  0.03259400  0.28494000  1.0
  Cs  Cs2  1  0.40824000  0.32537000  0.85815000  1.0
  Cs  Cs3  1  0.59176000  0.67463000  0.14185000  1.0
  Ge  Ge4  1  0.15729200  0.38729700  0.29811900  1.0
  Ge  Ge5  1  0.84270800  0.61270300  0.70188100  1.0
  Se  Se6  1  0.33211200  0.36236000  0.46614000  1.0
  Se  Se7  1  0.83938800  0.36236000  0.46614000  1.0
  Se  Se8  1  0.66788800  0.63764000  0.53386000  1.0
  Se  Se9  1  0.16061200  0.63764000  0.53386000  1.0
  Se  Se10  1  0.12557500  0.64454400  0.10430600  1.0
  Se  Se11  1  0.87442500  0.35545600  0.89569400  1.0
  Se  Se12  1  0.31515700  0.10003500  0.26965100  1.0
  Se  Se13  1  0.68484300  0.89996500  0.73034900  1.0
