# generated using pymatgen
data_Cs2P2Pd
_symmetry_space_group_name_H-M   'P 1'
_cell_length_a   6.31139100
_cell_length_b   7.00897200
_cell_length_c   8.30063254
_cell_angle_alpha   65.02675184
_cell_angle_beta   90.00000000
_cell_angle_gamma   90.00000000
_symmetry_Int_Tables_number   1
_chemical_formula_structural   Cs2P2Pd
_chemical_formula_sum   'Cs4 P4 Pd2'
_cell_volume   332.85938727
_cell_formula_units_Z   2
loop_
 _symmetry_equiv_pos_site_id
 _symmetry_equiv_pos_as_xyz
  1  'x, y, z'
loop_
 _atom_site_type_symbol
 _atom_site_label
 _atom_site_symmetry_multiplicity
 _atom_site_fract_x
 _atom_site_fract_y
 _atom_site_fract_z
 _atom_site_occupancy
  Cs  Cs0  1  0.75000000  0.78928700  0.42142600  1.0
  Cs  Cs1  1  0.25000000  0.21071300  0.57857400  1.0
  Cs  Cs2  1  0.75000000  0.41676700  0.16646600  1.0
  Cs  Cs3  1  0.25000000  0.58323300  0.83353400  1.0
  P  P4  1  0.75000000  0.25546600  0.80041000  1.0
  P  P5  1  0.25000000  0.74453400  0.19959000  1.0
  P  P6  1  0.75000000  0.94412400  0.80041000  1.0
  P  P7  1  0.25000000  0.05587600  0.19959000  1.0
  Pd  Pd8  1  0.00000000  0.00000000  0.00000000  1.0
  Pd  Pd9  1  0.50000000  0.00000000  0.00000000  1.0
