# generated using pymatgen
data_Cs2TaAgS4
_symmetry_space_group_name_H-M   'P 1'
_cell_length_a   6.03251800
_cell_length_b   7.87891624
_cell_length_c   12.97493419
_cell_angle_alpha   84.89420710
_cell_angle_beta   76.55757405
_cell_angle_gamma   67.49111871
_symmetry_Int_Tables_number   1
_chemical_formula_structural   Cs2TaAgS4
_chemical_formula_sum   'Cs4 Ta2 Ag2 S8'
_cell_volume   554.10718833
_cell_formula_units_Z   2
loop_
 _symmetry_equiv_pos_site_id
 _symmetry_equiv_pos_as_xyz
  1  'x, y, z'
loop_
 _atom_site_type_symbol
 _atom_site_label
 _atom_site_symmetry_multiplicity
 _atom_site_fract_x
 _atom_site_fract_y
 _atom_site_fract_z
 _atom_site_occupancy
  Cs  Cs0  1  0.67813600  1.00000000  0.64372800  1.0
  Cs  Cs1  1  0.32186400  1.00000000  0.35627200  1.0
  Cs  Cs2  1  0.07186400  0.50000000  0.85627200  1.0
  Cs  Cs3  1  0.42813600  0.50000000  0.14372800  1.0
  Ta  Ta4  1  0.50000000  1.00000000  0.00000000  1.0
  Ta  Ta5  1  0.25000000  0.50000000  0.50000000  1.0
  Ag  Ag6  1  0.00000000  0.00000000  0.00000000  1.0
  Ag  Ag7  1  0.75000000  0.50000000  0.50000000  1.0
  S  S8  1  0.67283900  0.18720800  0.89385400  1.0
  S  S9  1  0.75390200  0.81279100  0.10614500  1.0
  S  S10  1  0.13995400  0.18720800  0.10614500  1.0
  S  S11  1  0.43330800  0.81279100  0.89385400  1.0
  S  S12  1  0.31669200  0.68720900  0.60614600  1.0
  S  S13  1  0.99609800  0.68720900  0.39385500  1.0
  S  S14  1  0.61004600  0.31279200  0.39385500  1.0
  S  S15  1  0.07716100  0.31279200  0.60614600  1.0
