# generated using pymatgen
data_Cs2VHO4
_symmetry_space_group_name_H-M   'P 1'
_cell_length_a   5.49593200
_cell_length_b   6.96833402
_cell_length_c   9.04751200
_cell_angle_alpha   90.00000000
_cell_angle_beta   90.00000000
_cell_angle_gamma   113.22547252
_symmetry_Int_Tables_number   1
_chemical_formula_structural   Cs2VHO4
_chemical_formula_sum   'Cs4 V2 H2 O8'
_cell_volume   318.41692084
_cell_formula_units_Z   2
loop_
 _symmetry_equiv_pos_site_id
 _symmetry_equiv_pos_as_xyz
  1  'x, y, z'
loop_
 _atom_site_type_symbol
 _atom_site_label
 _atom_site_symmetry_multiplicity
 _atom_site_fract_x
 _atom_site_fract_y
 _atom_site_fract_z
 _atom_site_occupancy
  Cs  Cs0  1  0.38417800  0.76835600  0.94897300  1.0
  Cs  Cs1  1  0.61582200  0.23164400  0.44897300  1.0
  Cs  Cs2  1  0.94036300  0.88072600  0.60424400  1.0
  Cs  Cs3  1  0.05963700  0.11927400  0.10424400  1.0
  V  V4  1  0.30399500  0.60799000  0.37721700  1.0
  V  V5  1  0.69600500  0.39201000  0.87721700  1.0
  H  H6  1  0.83054600  0.66109200  0.27824700  1.0
  H  H7  1  0.16945400  0.33890800  0.77824700  1.0
  O  O8  1  0.62890300  0.25780600  0.04120300  1.0
  O  O9  1  0.05919500  0.67039700  0.28062300  1.0
  O  O10  1  0.94080500  0.32960300  0.78062300  1.0
  O  O11  1  0.37109700  0.74219400  0.54120300  1.0
  O  O12  1  0.38879800  0.32960300  0.78062300  1.0
  O  O13  1  0.61120200  0.67039700  0.28062300  1.0
  O  O14  1  0.82780500  0.65561000  0.90987100  1.0
  O  O15  1  0.17219500  0.34439000  0.40987100  1.0
