# generated using pymatgen
data_Cs3DyO3
_symmetry_space_group_name_H-M   'P 1'
_cell_length_a   7.63432403
_cell_length_b   7.63432403
_cell_length_c   7.66759316
_cell_angle_alpha   95.91715708
_cell_angle_beta   95.91715708
_cell_angle_gamma   116.37584323
_symmetry_Int_Tables_number   1
_chemical_formula_structural   Cs3DyO3
_chemical_formula_sum   'Cs6 Dy2 O6'
_cell_volume   392.63700497
_cell_formula_units_Z   2
loop_
 _symmetry_equiv_pos_site_id
 _symmetry_equiv_pos_as_xyz
  1  'x, y, z'
loop_
 _atom_site_type_symbol
 _atom_site_label
 _atom_site_symmetry_multiplicity
 _atom_site_fract_x
 _atom_site_fract_y
 _atom_site_fract_z
 _atom_site_occupancy
  Cs  Cs0  1  0.35805800  0.35805800  0.64970000  1.0
  Cs  Cs1  1  0.21106100  0.78893900  0.50000000  1.0
  Cs  Cs2  1  0.78893900  0.21106100  0.50000000  1.0
  Cs  Cs3  1  0.26135300  0.73864700  1.00000000  1.0
  Cs  Cs4  1  0.73864700  0.26135300  1.00000000  1.0
  Cs  Cs5  1  0.64194200  0.64194200  0.35030000  1.0
  Dy  Dy6  1  0.17354100  0.17354100  0.15022300  1.0
  Dy  Dy7  1  0.82645900  0.82645900  0.84977700  1.0
  O  O8  1  0.10004700  0.10004700  0.85673500  1.0
  O  O9  1  0.16848600  0.43828100  0.26558300  1.0
  O  O10  1  0.43828100  0.16848600  0.26558300  1.0
  O  O11  1  0.56171900  0.83151400  0.73441700  1.0
  O  O12  1  0.83151400  0.56171900  0.73441700  1.0
  O  O13  1  0.89995300  0.89995300  0.14326500  1.0
