# generated using pymatgen
data_CsAuO
_symmetry_space_group_name_H-M   'P 1'
_cell_length_a   6.31785600
_cell_length_b   8.00720251
_cell_length_c   8.00720251
_cell_angle_alpha   81.04615448
_cell_angle_beta   66.76453157
_cell_angle_gamma   66.76453157
_symmetry_Int_Tables_number   1
_chemical_formula_structural   CsAuO
_chemical_formula_sum   'Cs4 Au4 O4'
_cell_volume   342.02639608
_cell_formula_units_Z   4
loop_
 _symmetry_equiv_pos_site_id
 _symmetry_equiv_pos_as_xyz
  1  'x, y, z'
loop_
 _atom_site_type_symbol
 _atom_site_label
 _atom_site_symmetry_multiplicity
 _atom_site_fract_x
 _atom_site_fract_y
 _atom_site_fract_z
 _atom_site_occupancy
  Cs  Cs0  1  0.50000000  0.30126500  0.69873500  1.0
  Cs  Cs1  1  0.19873500  0.30126500  0.30126500  1.0
  Cs  Cs2  1  0.80126500  0.69873500  0.69873500  1.0
  Cs  Cs3  1  0.50000000  0.69873500  0.30126500  1.0
  Au  Au4  1  0.85533000  0.28933900  1.00000000  1.0
  Au  Au5  1  0.85533100  0.00000000  0.28933800  1.0
  Au  Au6  1  0.14466900  1.00000000  0.71066200  1.0
  Au  Au7  1  0.14467000  0.71066100  1.00000000  1.0
  O  O8  1  0.00000000  0.28016400  0.71983600  1.0
  O  O9  1  0.71983600  0.28016400  0.28016400  1.0
  O  O10  1  0.28016400  0.71983600  0.71983600  1.0
  O  O11  1  0.00000000  0.71983600  0.28016400  1.0
