# generated using pymatgen
data_CsAuCl4
_symmetry_space_group_name_H-M   'P 1'
_cell_length_a   6.39351200
_cell_length_b   7.39649121
_cell_length_c   10.21881546
_cell_angle_alpha   103.34543924
_cell_angle_beta   90.00000000
_cell_angle_gamma   115.60719447
_symmetry_Int_Tables_number   1
_chemical_formula_structural   CsAuCl4
_chemical_formula_sum   'Cs2 Au2 Cl8'
_cell_volume   421.26103737
_cell_formula_units_Z   2
loop_
 _symmetry_equiv_pos_site_id
 _symmetry_equiv_pos_as_xyz
  1  'x, y, z'
loop_
 _atom_site_type_symbol
 _atom_site_label
 _atom_site_symmetry_multiplicity
 _atom_site_fract_x
 _atom_site_fract_y
 _atom_site_fract_z
 _atom_site_occupancy
  Cs  Cs0  1  0.70243600  0.00000000  0.25000000  1.0
  Cs  Cs1  1  0.29756400  0.00000000  0.75000000  1.0
  Au  Au2  1  1.00000000  0.50000000  1.00000000  1.0
  Au  Au3  1  0.50000000  0.50000000  0.50000000  1.0
  Cl  Cl4  1  0.86785900  0.14319000  0.93080800  1.0
  Cl  Cl5  1  0.72466900  0.85681000  0.56919200  1.0
  Cl  Cl6  1  0.13214100  0.85681000  0.06919200  1.0
  Cl  Cl7  1  0.27533100  0.14319000  0.43080800  1.0
  Cl  Cl8  1  0.69359600  0.45359500  0.13298000  1.0
  Cl  Cl9  1  0.24000100  0.54640500  0.36702000  1.0
  Cl  Cl10  1  0.30640400  0.54640500  0.86702000  1.0
  Cl  Cl11  1  0.75999900  0.45359500  0.63298000  1.0
