# generated using pymatgen
data_CsCoO2
_symmetry_space_group_name_H-M   'P 1'
_cell_length_a   6.01912414
_cell_length_b   6.01908808
_cell_length_c   6.01915950
_cell_angle_alpha   59.99959977
_cell_angle_beta   59.99989897
_cell_angle_gamma   59.99941324
_symmetry_Int_Tables_number   1
_chemical_formula_structural   CsCoO2
_chemical_formula_sum   'Cs2 Co2 O4'
_cell_volume   154.19890229
_cell_formula_units_Z   2
loop_
 _symmetry_equiv_pos_site_id
 _symmetry_equiv_pos_as_xyz
  1  'x, y, z'
loop_
 _atom_site_type_symbol
 _atom_site_label
 _atom_site_symmetry_multiplicity
 _atom_site_fract_x
 _atom_site_fract_y
 _atom_site_fract_z
 _atom_site_occupancy
  Cs  Cs0  1  0.49999900  0.50000100  0.50000000  1.0
  Cs  Cs1  1  0.75000100  0.74999900  0.75000000  1.0
  Co  Co2  1  0.25000000  0.24999700  0.25000200  1.0
  Co  Co3  1  0.00000000  0.00000400  0.99999700  1.0
  O  O4  1  0.12808200  0.12808300  0.12808300  1.0
  O  O5  1  0.12808200  0.61575300  0.12808300  1.0
  O  O6  1  0.61575200  0.12808300  0.12808300  1.0
  O  O7  1  0.12808300  0.12808200  0.61575200  1.0
