# generated using pymatgen
data_CsCoNiF6
_symmetry_space_group_name_H-M   'P 1'
_cell_length_a   7.36367935
_cell_length_b   7.36367935
_cell_length_c   7.36367935
_cell_angle_alpha   89.66470676
_cell_angle_beta   60.00133555
_cell_angle_gamma   119.61491871
_symmetry_Int_Tables_number   1
_chemical_formula_structural   CsCoNiF6
_chemical_formula_sum   'Cs2 Co2 Ni2 F12'
_cell_volume   283.15351165
_cell_formula_units_Z   2
loop_
 _symmetry_equiv_pos_site_id
 _symmetry_equiv_pos_as_xyz
  1  'x, y, z'
loop_
 _atom_site_type_symbol
 _atom_site_label
 _atom_site_symmetry_multiplicity
 _atom_site_fract_x
 _atom_site_fract_y
 _atom_site_fract_z
 _atom_site_occupancy
  Cs  Cs0  1  0.75000000  0.12792600  0.62207400  1.0
  Cs  Cs1  1  0.25000000  0.87207400  0.37792600  1.0
  Co  Co2  1  0.00000000  0.00000000  0.00000000  1.0
  Co  Co3  1  0.50000000  0.50000000  1.00000000  1.0
  Ni  Ni4  1  0.50000000  0.50000000  0.50000000  1.0
  Ni  Ni5  1  1.00000000  0.50000000  0.00000000  1.0
  F  F6  1  0.25000000  0.18147100  0.06852900  1.0
  F  F7  1  0.25000000  0.57296300  0.67703700  1.0
  F  F8  1  0.26154800  0.57107200  0.06885600  1.0
  F  F9  1  0.23845200  0.16959600  0.69047600  1.0
  F  F10  1  0.63992800  0.57107200  0.69047600  1.0
  F  F11  1  0.86007200  0.16959600  0.06885600  1.0
  F  F12  1  0.75000000  0.81852900  0.93147100  1.0
  F  F13  1  0.75000000  0.42703700  0.32296300  1.0
  F  F14  1  0.73845200  0.42892800  0.93114400  1.0
  F  F15  1  0.76154800  0.83040400  0.30952400  1.0
  F  F16  1  0.36007200  0.42892800  0.30952400  1.0
  F  F17  1  0.13992800  0.83040400  0.93114400  1.0
