# generated using pymatgen
data_CsCrBr3
_symmetry_space_group_name_H-M   'P 1'
_cell_length_a   6.49263900
_cell_length_b   7.75990800
_cell_length_c   7.75990760
_cell_angle_alpha   120.00000169
_cell_angle_beta   90.00000000
_cell_angle_gamma   90.00000000
_symmetry_Int_Tables_number   1
_chemical_formula_structural   CsCrBr3
_chemical_formula_sum   'Cs2 Cr2 Br6'
_cell_volume   338.58288613
_cell_formula_units_Z   2
loop_
 _symmetry_equiv_pos_site_id
 _symmetry_equiv_pos_as_xyz
  1  'x, y, z'
loop_
 _atom_site_type_symbol
 _atom_site_label
 _atom_site_symmetry_multiplicity
 _atom_site_fract_x
 _atom_site_fract_y
 _atom_site_fract_z
 _atom_site_occupancy
  Cs  Cs0  1  0.74412600  0.33333333  0.66666667  1.0
  Cs  Cs1  1  0.24412600  0.66666667  0.33333333  1.0
  Cr  Cr2  1  0.48607400  0.00000000  0.00000000  1.0
  Cr  Cr3  1  0.98607400  0.00000000  0.00000000  1.0
  Br  Br4  1  0.73663300  0.31508900  0.15754400  1.0
  Br  Br5  1  0.23663300  0.15754500  0.31509000  1.0
  Br  Br6  1  0.73663300  0.84245500  0.68491000  1.0
  Br  Br7  1  0.23663300  0.68491100  0.84245600  1.0
  Br  Br8  1  0.23663300  0.15754500  0.84245600  1.0
  Br  Br9  1  0.73663300  0.84245500  0.15754400  1.0
