# generated using pymatgen
data_CsFeNiF6
_symmetry_space_group_name_H-M   'P 1'
_cell_length_a   7.37950600
_cell_length_b   7.42476866
_cell_length_c   7.42476866
_cell_angle_alpha   60.56764988
_cell_angle_beta   60.20145565
_cell_angle_gamma   60.20145564
_symmetry_Int_Tables_number   1
_chemical_formula_structural   CsFeNiF6
_chemical_formula_sum   'Cs2 Fe2 Ni2 F12'
_cell_volume   289.75692245
_cell_formula_units_Z   2
loop_
 _symmetry_equiv_pos_site_id
 _symmetry_equiv_pos_as_xyz
  1  'x, y, z'
loop_
 _atom_site_type_symbol
 _atom_site_label
 _atom_site_symmetry_multiplicity
 _atom_site_fract_x
 _atom_site_fract_y
 _atom_site_fract_z
 _atom_site_occupancy
  Cs  Cs0  1  0.62109300  0.62890700  0.12890700  1.0
  Cs  Cs1  1  0.37890700  0.37109300  0.87109300  1.0
  Fe  Fe2  1  1.00000000  0.50000000  0.50000000  1.0
  Fe  Fe3  1  0.00000000  0.00000000  0.00000000  1.0
  Ni  Ni4  1  0.50000000  1.00000000  0.50000000  1.0
  Ni  Ni5  1  1.00000000  1.00000000  0.50000000  1.0
  F  F6  1  0.06616000  0.68384000  0.18384000  1.0
  F  F7  1  0.67606600  0.07393400  0.57393400  1.0
  F  F8  1  0.06741500  0.06877300  0.17486600  1.0
  F  F9  1  0.68894500  0.67486700  0.56877400  1.0
  F  F10  1  0.68894600  0.06877400  0.17486600  1.0
  F  F11  1  0.06741400  0.67486600  0.56877400  1.0
  F  F12  1  0.93384000  0.31616000  0.81616000  1.0
  F  F13  1  0.32393400  0.92606600  0.42606600  1.0
  F  F14  1  0.93258500  0.93122700  0.82513400  1.0
  F  F15  1  0.31105500  0.32513300  0.43122600  1.0
  F  F16  1  0.31105400  0.93122600  0.82513400  1.0
  F  F17  1  0.93258600  0.32513400  0.43122600  1.0
