# generated using pymatgen
data_CsK(ClO4)2
_symmetry_space_group_name_H-M   'P 1'
_cell_length_a   5.90294044
_cell_length_b   5.90294044
_cell_length_c   8.11370635
_cell_angle_alpha   68.66850081
_cell_angle_beta   68.66850081
_cell_angle_gamma   59.99999512
_symmetry_Int_Tables_number   1
_chemical_formula_structural   CsK(ClO4)2
_chemical_formula_sum   'Cs1 K1 Cl2 O8'
_cell_volume   222.19613602
_cell_formula_units_Z   1
loop_
 _symmetry_equiv_pos_site_id
 _symmetry_equiv_pos_as_xyz
  1  'x, y, z'
loop_
 _atom_site_type_symbol
 _atom_site_label
 _atom_site_symmetry_multiplicity
 _atom_site_fract_x
 _atom_site_fract_y
 _atom_site_fract_z
 _atom_site_occupancy
  Cs  Cs0  1  0.50000000  0.50000000  0.50000000  1.0
  K  K1  1  0.00000000  0.00000000  0.00000000  1.0
  Cl  Cl2  1  0.26595900  0.26595900  0.20212300  1.0
  Cl  Cl3  1  0.73404100  0.73404100  0.79787700  1.0
  O  O4  1  0.48698900  0.89152200  0.72996700  1.0
  O  O5  1  0.66806500  0.66806500  0.99580500  1.0
  O  O6  1  0.51301100  0.10847800  0.27003200  1.0
  O  O7  1  0.89152100  0.89152200  0.72996800  1.0
  O  O8  1  0.10847800  0.10847800  0.27003300  1.0
  O  O9  1  0.10847800  0.51301100  0.27003200  1.0
  O  O10  1  0.33193500  0.33193500  0.00419500  1.0
  O  O11  1  0.89152100  0.48698900  0.72996800  1.0
