# generated using pymatgen
data_CsLi2Br3
_symmetry_space_group_name_H-M   'P 1'
_cell_length_a   4.69173200
_cell_length_b   5.70265200
_cell_length_c   7.71947405
_cell_angle_alpha   111.67663998
_cell_angle_beta   107.69135740
_cell_angle_gamma   90.00000000
_symmetry_Int_Tables_number   1
_chemical_formula_structural   CsLi2Br3
_chemical_formula_sum   'Cs1 Li2 Br3'
_cell_volume   181.37880130
_cell_formula_units_Z   1
loop_
 _symmetry_equiv_pos_site_id
 _symmetry_equiv_pos_as_xyz
  1  'x, y, z'
loop_
 _atom_site_type_symbol
 _atom_site_label
 _atom_site_symmetry_multiplicity
 _atom_site_fract_x
 _atom_site_fract_y
 _atom_site_fract_z
 _atom_site_occupancy
  Cs  Cs0  1  0.50000000  1.00000000  0.00000000  1.0
  Li  Li1  1  0.19138500  0.69138500  0.38277000  1.0
  Li  Li2  1  0.80861500  0.30861500  0.61723000  1.0
  Br  Br3  1  0.21954800  0.21954800  0.43909600  1.0
  Br  Br4  1  0.78045200  0.78045200  0.56090400  1.0
  Br  Br5  1  1.00000000  0.50000000  1.00000000  1.0
