# generated using pymatgen
data_CsNd5Se8
_symmetry_space_group_name_H-M   'P 1'
_cell_length_a   7.92624386
_cell_length_b   7.92624386
_cell_length_c   7.92624386
_cell_angle_alpha   109.08688945
_cell_angle_beta   109.08688944
_cell_angle_gamma   110.24264807
_symmetry_Int_Tables_number   1
_chemical_formula_structural   CsNd5Se8
_chemical_formula_sum   'Cs1 Nd5 Se8'
_cell_volume   383.28449994
_cell_formula_units_Z   1
loop_
 _symmetry_equiv_pos_site_id
 _symmetry_equiv_pos_as_xyz
  1  'x, y, z'
loop_
 _atom_site_type_symbol
 _atom_site_label
 _atom_site_symmetry_multiplicity
 _atom_site_fract_x
 _atom_site_fract_y
 _atom_site_fract_z
 _atom_site_occupancy
  Cs  Cs0  1  0.00000000  0.00000000  0.00000000  1.0
  Nd  Nd1  1  0.88335900  0.76039500  0.38645500  1.0
  Nd  Nd2  1  0.23960500  0.62606000  0.12296400  1.0
  Nd  Nd3  1  0.37393900  0.49690300  0.61354400  1.0
  Nd  Nd4  1  0.50309600  0.11664100  0.87703500  1.0
  Nd  Nd5  1  0.75000000  0.25000000  0.50000000  1.0
  Se  Se6  1  0.60268200  0.86145900  0.57239700  1.0
  Se  Se7  1  0.61211100  0.87009000  0.11379700  1.0
  Se  Se8  1  0.13854100  0.71093700  0.74122300  1.0
  Se  Se9  1  0.96971500  0.39731900  0.25877700  1.0
  Se  Se10  1  0.75629300  0.49831400  0.88620400  1.0
  Se  Se11  1  0.50168600  0.38789000  0.25797900  1.0
  Se  Se12  1  0.12991100  0.24370700  0.74202200  1.0
  Se  Se13  1  0.28906200  0.03028500  0.42760300  1.0
