# generated using pymatgen
data_CsTaSe3
_symmetry_space_group_name_H-M   'P 1'
_cell_length_a   6.18022500
_cell_length_b   7.79470600
_cell_length_c   7.79470564
_cell_angle_alpha   120.00000151
_cell_angle_beta   90.00000000
_cell_angle_gamma   90.00000000
_symmetry_Int_Tables_number   1
_chemical_formula_structural   CsTaSe3
_chemical_formula_sum   'Cs2 Ta2 Se6'
_cell_volume   325.18789412
_cell_formula_units_Z   2
loop_
 _symmetry_equiv_pos_site_id
 _symmetry_equiv_pos_as_xyz
  1  'x, y, z'
loop_
 _atom_site_type_symbol
 _atom_site_label
 _atom_site_symmetry_multiplicity
 _atom_site_fract_x
 _atom_site_fract_y
 _atom_site_fract_z
 _atom_site_occupancy
  Cs  Cs0  1  0.74877100  0.66666667  0.33333333  1.0
  Cs  Cs1  1  0.24877100  0.33333333  0.66666667  1.0
  Ta  Ta2  1  0.04392000  0.00000000  0.00000000  1.0
  Ta  Ta3  1  0.54392000  0.00000000  0.00000000  1.0
  Se  Se4  1  0.25064000  0.84319100  0.68638200  1.0
  Se  Se5  1  0.25064000  0.84319100  0.15680900  1.0
  Se  Se6  1  0.25064000  0.31361800  0.15680900  1.0
  Se  Se7  1  0.75064000  0.15680900  0.31361800  1.0
  Se  Se8  1  0.75064000  0.15680900  0.84319100  1.0
  Se  Se9  1  0.75064000  0.68638200  0.84319100  1.0
