# generated using pymatgen
data_CsUAgS3
_symmetry_space_group_name_H-M   'P 1'
_cell_length_a   4.13707800
_cell_length_b   8.06236363
_cell_length_c   10.54877600
_cell_angle_alpha   90.00000000
_cell_angle_beta   90.00000000
_cell_angle_gamma   104.86647588
_symmetry_Int_Tables_number   1
_chemical_formula_structural   CsUAgS3
_chemical_formula_sum   'Cs2 U2 Ag2 S6'
_cell_volume   340.07277577
_cell_formula_units_Z   2
loop_
 _symmetry_equiv_pos_site_id
 _symmetry_equiv_pos_as_xyz
  1  'x, y, z'
loop_
 _atom_site_type_symbol
 _atom_site_label
 _atom_site_symmetry_multiplicity
 _atom_site_fract_x
 _atom_site_fract_y
 _atom_site_fract_z
 _atom_site_occupancy
  Cs  Cs0  1  0.26103700  0.52207400  0.75000000  1.0
  Cs  Cs1  1  0.73896300  0.47792600  0.25000000  1.0
  U  U2  1  0.00000000  0.00000000  0.50000000  1.0
  U  U3  1  0.00000000  0.00000000  0.00000000  1.0
  Ag  Ag4  1  0.45509100  0.91018200  0.25000000  1.0
  Ag  Ag5  1  0.54490900  0.08981800  0.75000000  1.0
  S  S6  1  0.38683200  0.77366400  0.46336600  1.0
  S  S7  1  0.61316800  0.22633600  0.53663400  1.0
  S  S8  1  0.61316800  0.22633600  0.96336600  1.0
  S  S9  1  0.05289800  0.10579600  0.25000000  1.0
  S  S10  1  0.94710200  0.89420400  0.75000000  1.0
  S  S11  1  0.38683200  0.77366400  0.03663400  1.0
