# generated using pymatgen
data_Cu2GeS3
_symmetry_space_group_name_H-M   'P 1'
_cell_length_a   6.47662000
_cell_length_b   6.51108833
_cell_length_c   6.51528691
_cell_angle_alpha   80.60816766
_cell_angle_beta   70.84604670
_cell_angle_gamma   60.17496320
_symmetry_Int_Tables_number   1
_chemical_formula_structural   Cu2GeS3
_chemical_formula_sum   'Cu4 Ge2 S6'
_cell_volume   225.16229336
_cell_formula_units_Z   2
loop_
 _symmetry_equiv_pos_site_id
 _symmetry_equiv_pos_as_xyz
  1  'x, y, z'
loop_
 _atom_site_type_symbol
 _atom_site_label
 _atom_site_symmetry_multiplicity
 _atom_site_fract_x
 _atom_site_fract_y
 _atom_site_fract_z
 _atom_site_occupancy
  Cu  Cu0  1  0.96988200  0.83087800  0.85989400  1.0
  Cu  Cu1  1  0.62696800  0.50368100  0.85975200  1.0
  Cu  Cu2  1  0.80076000  0.16912200  0.35989400  1.0
  Cu  Cu3  1  0.13064900  0.49631900  0.35975200  1.0
  Ge  Ge4  1  0.27650200  0.17497500  0.87917100  1.0
  Ge  Ge5  1  0.45147700  0.82502500  0.37917100  1.0
  S  S6  1  0.75074200  0.50400300  0.48783900  1.0
  S  S7  1  0.25474500  0.49599700  0.98783900  1.0
  S  S8  1  0.08254900  0.83081100  0.48594500  1.0
  S  S9  1  0.91336000  0.16918900  0.98594500  1.0
  S  S10  1  0.58849600  0.83337400  0.99239800  1.0
  S  S11  1  0.42187000  0.16662600  0.49239800  1.0
