# generated using pymatgen
data_Cu2NiSnSe4
_symmetry_space_group_name_H-M   'P 1'
_cell_length_a   5.64077600
_cell_length_b   5.64077600
_cell_length_c   6.92876312
_cell_angle_alpha   114.01997124
_cell_angle_beta   114.01997124
_cell_angle_gamma   90.00000000
_symmetry_Int_Tables_number   1
_chemical_formula_structural   Cu2NiSnSe4
_chemical_formula_sum   'Cu2 Ni1 Sn1 Se4'
_cell_volume   180.26882477
_cell_formula_units_Z   1
loop_
 _symmetry_equiv_pos_site_id
 _symmetry_equiv_pos_as_xyz
  1  'x, y, z'
loop_
 _atom_site_type_symbol
 _atom_site_label
 _atom_site_symmetry_multiplicity
 _atom_site_fract_x
 _atom_site_fract_y
 _atom_site_fract_z
 _atom_site_occupancy
  Cu  Cu0  1  0.00000000  0.00000000  0.00000000  1.0
  Cu  Cu1  1  0.75000000  0.25000000  0.50000000  1.0
  Ni  Ni2  1  0.50000000  0.50000000  0.00000000  1.0
  Sn  Sn3  1  0.25000000  0.75000000  0.50000000  1.0
  Se  Se4  1  0.12451400  0.61298700  0.77248500  1.0
  Se  Se5  1  0.84050200  0.87548500  0.22751400  1.0
  Se  Se6  1  0.64797100  0.15949800  0.77248600  1.0
  Se  Se7  1  0.38701200  0.35202900  0.22751500  1.0
