# generated using pymatgen
data_Cu2SnSe3
_symmetry_space_group_name_H-M   'P 1'
_cell_length_a   4.11580600
_cell_length_b   5.75281200
_cell_length_c   7.08207926
_cell_angle_alpha   113.96338488
_cell_angle_beta   106.89261878
_cell_angle_gamma   90.00000001
_symmetry_Int_Tables_number   1
_chemical_formula_structural   Cu2SnSe3
_chemical_formula_sum   'Cu2 Sn1 Se3'
_cell_volume   145.27846681
_cell_formula_units_Z   1
loop_
 _symmetry_equiv_pos_site_id
 _symmetry_equiv_pos_as_xyz
  1  'x, y, z'
loop_
 _atom_site_type_symbol
 _atom_site_label
 _atom_site_symmetry_multiplicity
 _atom_site_fract_x
 _atom_site_fract_y
 _atom_site_fract_z
 _atom_site_occupancy
  Cu  Cu0  1  0.16961500  0.16234800  0.33923000  1.0
  Cu  Cu1  1  0.83038600  0.82311900  0.66077100  1.0
  Sn  Sn2  1  0.50000000  0.51778600  0.00000000  1.0
  Se  Se3  1  0.67780200  0.94324400  0.35560400  1.0
  Se  Se4  1  0.32219800  0.58764000  0.64439600  1.0
  Se  Se5  1  1.00000000  0.21586600  1.00000000  1.0
