# generated using pymatgen
data_Cu2SiS3
_symmetry_space_group_name_H-M   'P 1'
_cell_length_a   6.39625000
_cell_length_b   6.40795184
_cell_length_c   7.07611070
_cell_angle_alpha   116.12496661
_cell_angle_beta   90.00000000
_cell_angle_gamma   119.93961002
_symmetry_Int_Tables_number   1
_chemical_formula_structural   Cu2SiS3
_chemical_formula_sum   'Cu4 Si2 S6'
_cell_volume   216.45877880
_cell_formula_units_Z   2
loop_
 _symmetry_equiv_pos_site_id
 _symmetry_equiv_pos_as_xyz
  1  'x, y, z'
loop_
 _atom_site_type_symbol
 _atom_site_label
 _atom_site_symmetry_multiplicity
 _atom_site_fract_x
 _atom_site_fract_y
 _atom_site_fract_z
 _atom_site_occupancy
  Cu  Cu0  1  0.83333400  0.82569400  0.49805900  1.0
  Cu  Cu1  1  0.15989200  0.49240200  0.49214900  1.0
  Cu  Cu2  1  0.99236000  0.82569400  0.99805900  1.0
  Cu  Cu3  1  0.33251000  0.49240200  0.99214900  1.0
  Si  Si4  1  0.50955700  0.18973100  0.51242600  1.0
  Si  Si5  1  0.68017400  0.18973100  0.01242600  1.0
  S  S6  1  0.70306900  0.56895300  0.12578100  1.0
  S  S7  1  0.02368600  0.24059100  0.11211500  1.0
  S  S8  1  0.38965000  0.93253300  0.13448900  1.0
  S  S9  1  0.86588400  0.56895300  0.62578100  1.0
  S  S10  1  0.21690500  0.24059100  0.61211500  1.0
  S  S11  1  0.54288300  0.93253300  0.63448900  1.0
