# generated using pymatgen
data_Cu2WSe4
_symmetry_space_group_name_H-M   'P 1'
_cell_length_a   5.60694600
_cell_length_b   5.60694600
_cell_length_c   6.94634580
_cell_angle_alpha   113.80277506
_cell_angle_beta   113.80277506
_cell_angle_gamma   90.00000000
_symmetry_Int_Tables_number   1
_chemical_formula_structural   Cu2WSe4
_chemical_formula_sum   'Cu2 W1 Se4'
_cell_volume   179.31369369
_cell_formula_units_Z   1
loop_
 _symmetry_equiv_pos_site_id
 _symmetry_equiv_pos_as_xyz
  1  'x, y, z'
loop_
 _atom_site_type_symbol
 _atom_site_label
 _atom_site_symmetry_multiplicity
 _atom_site_fract_x
 _atom_site_fract_y
 _atom_site_fract_z
 _atom_site_occupancy
  Cu  Cu0  1  1.00000000  0.50000000  0.00000000  1.0
  Cu  Cu1  1  0.50000000  0.00000000  0.00000000  1.0
  W  W2  1  0.00000000  0.00000000  0.00000000  1.0
  Se  Se3  1  0.88296400  0.88296400  0.24877400  1.0
  Se  Se4  1  0.36581000  0.36581000  0.24877400  1.0
  Se  Se5  1  0.63419000  0.11703600  0.75122600  1.0
  Se  Se6  1  0.11703600  0.63419000  0.75122600  1.0
