# generated using pymatgen
data_Cu3Si
_symmetry_space_group_name_H-M   'P 1'
_cell_length_a   4.07809400
_cell_length_b   5.20801400
_cell_length_c   5.20801450
_cell_angle_alpha   60.00000315
_cell_angle_beta   90.00000000
_cell_angle_gamma   90.00000000
_symmetry_Int_Tables_number   1
_chemical_formula_structural   Cu3Si
_chemical_formula_sum   'Cu6 Si2'
_cell_volume   95.79265394
_cell_formula_units_Z   2
loop_
 _symmetry_equiv_pos_site_id
 _symmetry_equiv_pos_as_xyz
  1  'x, y, z'
loop_
 _atom_site_type_symbol
 _atom_site_label
 _atom_site_symmetry_multiplicity
 _atom_site_fract_x
 _atom_site_fract_y
 _atom_site_fract_z
 _atom_site_occupancy
  Cu  Cu0  1  0.75000000  0.66380600  0.16809700  1.0
  Cu  Cu1  1  0.75000000  0.16809700  0.16809700  1.0
  Cu  Cu2  1  0.75000000  0.16809700  0.66380600  1.0
  Cu  Cu3  1  0.25000000  0.33619400  0.83190300  1.0
  Cu  Cu4  1  0.25000000  0.83190300  0.83190300  1.0
  Cu  Cu5  1  0.25000000  0.83190300  0.33619400  1.0
  Si  Si6  1  0.25000000  0.33333333  0.33333333  1.0
  Si  Si7  1  0.75000000  0.66666667  0.66666667  1.0
