# generated using pymatgen
data_CuAsF7
_symmetry_space_group_name_H-M   'P 1'
_cell_length_a   6.97951800
_cell_length_b   7.38378053
_cell_length_c   6.98099000
_cell_angle_alpha   118.21130472
_cell_angle_beta   90.00000000
_cell_angle_gamma   118.20482392
_symmetry_Int_Tables_number   1
_chemical_formula_structural   CuAsF7
_chemical_formula_sum   'Cu2 As2 F14'
_cell_volume   267.57495201
_cell_formula_units_Z   2
loop_
 _symmetry_equiv_pos_site_id
 _symmetry_equiv_pos_as_xyz
  1  'x, y, z'
loop_
 _atom_site_type_symbol
 _atom_site_label
 _atom_site_symmetry_multiplicity
 _atom_site_fract_x
 _atom_site_fract_y
 _atom_site_fract_z
 _atom_site_occupancy
  Cu  Cu0  1  0.50000000  0.50000000  0.00000000  1.0
  Cu  Cu1  1  0.50000000  0.50000000  0.50000000  1.0
  As  As2  1  0.00000000  0.00000000  0.50000000  1.0
  As  As3  1  0.50000000  0.00000000  1.00000000  1.0
  F  F4  1  0.59676700  0.50000000  0.75000000  1.0
  F  F5  1  0.40323300  0.50000000  0.25000000  1.0
  F  F6  1  0.21483600  0.94038400  0.47019200  1.0
  F  F7  1  0.77445200  0.05961700  0.02980900  1.0
  F  F8  1  0.58100400  0.22821500  0.29630300  1.0
  F  F9  1  0.85278900  0.77178400  0.20369600  1.0
  F  F10  1  0.41899500  0.77178400  0.06808800  1.0
  F  F11  1  0.14721200  0.22821700  0.43191300  1.0
  F  F12  1  0.41899600  0.77178500  0.70369700  1.0
  F  F13  1  0.14721100  0.22821600  0.79630400  1.0
  F  F14  1  0.58100500  0.22821600  0.93191200  1.0
  F  F15  1  0.85278800  0.77178300  0.56808700  1.0
  F  F16  1  0.22554800  0.94038300  0.97019100  1.0
  F  F17  1  0.78516400  0.05961600  0.52980800  1.0
