# generated using pymatgen
data_CuAuO2
_symmetry_space_group_name_H-M   'P 1'
_cell_length_a   2.84824800
_cell_length_b   3.45518963
_cell_length_c   6.18039967
_cell_angle_alpha   97.31524793
_cell_angle_beta   90.00000000
_cell_angle_gamma   114.34119641
_symmetry_Int_Tables_number   1
_chemical_formula_structural   CuAuO2
_chemical_formula_sum   'Cu1 Au1 O2'
_cell_volume   54.87224854
_cell_formula_units_Z   1
loop_
 _symmetry_equiv_pos_site_id
 _symmetry_equiv_pos_as_xyz
  1  'x, y, z'
loop_
 _atom_site_type_symbol
 _atom_site_label
 _atom_site_symmetry_multiplicity
 _atom_site_fract_x
 _atom_site_fract_y
 _atom_site_fract_z
 _atom_site_occupancy
  Cu  Cu0  1  0.50000000  1.00000000  1.00000000  1.0
  Au  Au1  1  0.00000000  0.00000000  0.50000000  1.0
  O  O2  1  0.91325500  0.82651000  0.17022300  1.0
  O  O3  1  0.08674500  0.17349000  0.82977700  1.0
