# generated using pymatgen
data_CuH6BrN2
_symmetry_space_group_name_H-M   'P 1'
_cell_length_a   5.80565712
_cell_length_b   6.67585400
_cell_length_c   7.24993794
_cell_angle_alpha   62.58658346
_cell_angle_beta   78.93965668
_cell_angle_gamma   65.37483267
_symmetry_Int_Tables_number   1
_chemical_formula_structural   CuH6BrN2
_chemical_formula_sum   'Cu2 H12 Br2 N4'
_cell_volume   226.75231258
_cell_formula_units_Z   2
loop_
 _symmetry_equiv_pos_site_id
 _symmetry_equiv_pos_as_xyz
  1  'x, y, z'
loop_
 _atom_site_type_symbol
 _atom_site_label
 _atom_site_symmetry_multiplicity
 _atom_site_fract_x
 _atom_site_fract_y
 _atom_site_fract_z
 _atom_site_occupancy
  Cu  Cu0  1  0.50000000  0.00000000  0.00000000  1.0
  Cu  Cu1  1  0.00000000  0.00000000  0.00000000  1.0
  H  H2  1  0.71291700  0.18004200  0.23114300  1.0
  H  H3  1  0.78708300  0.58881500  0.23114300  1.0
  H  H4  1  0.00828500  0.14508900  0.25664700  1.0
  H  H5  1  0.49171500  0.59826400  0.25664700  1.0
  H  H6  1  0.58752700  0.71167800  0.37730600  1.0
  H  H7  1  0.91247300  0.91101600  0.37730600  1.0
  H  H8  1  0.08752700  0.08898400  0.62269400  1.0
  H  H9  1  0.41247300  0.28832200  0.62269400  1.0
  H  H10  1  0.50828500  0.40173600  0.74335300  1.0
  H  H11  1  0.99171500  0.85491100  0.74335300  1.0
  H  H12  1  0.21291700  0.41118500  0.76885700  1.0
  H  H13  1  0.28708300  0.81995800  0.76885700  1.0
  Br  Br14  1  0.25000000  0.36336000  0.27328000  1.0
  Br  Br15  1  0.75000000  0.63664000  0.72672000  1.0
  N  N16  1  0.90013300  0.06384000  0.24099500  1.0
  N  N17  1  0.59986700  0.69516500  0.24099500  1.0
  N  N18  1  0.40013300  0.30483600  0.75900400  1.0
  N  N19  1  0.09986700  0.93616000  0.75900500  1.0
