# generated using pymatgen
data_CuI
_symmetry_space_group_name_H-M   'P 1'
_cell_length_a   4.27962631
_cell_length_b   4.27962631
_cell_length_c   14.26864802
_cell_angle_alpha   81.37504019
_cell_angle_beta   81.37504019
_cell_angle_gamma   59.99999523
_symmetry_Int_Tables_number   1
_chemical_formula_structural   CuI
_chemical_formula_sum   'Cu4 I4'
_cell_volume   222.90203792
_cell_formula_units_Z   4
loop_
 _symmetry_equiv_pos_site_id
 _symmetry_equiv_pos_as_xyz
  1  'x, y, z'
loop_
 _atom_site_type_symbol
 _atom_site_label
 _atom_site_symmetry_multiplicity
 _atom_site_fract_x
 _atom_site_fract_y
 _atom_site_fract_z
 _atom_site_occupancy
  Cu  Cu0  1  0.72966800  0.72966800  0.81099600  1.0
  Cu  Cu1  1  0.56251700  0.56251700  0.31244900  1.0
  Cu  Cu2  1  0.31286900  0.31286900  0.06139300  1.0
  Cu  Cu3  1  0.14607600  0.14607600  0.56177200  1.0
  I  I4  1  0.79177300  0.79177300  0.62468100  1.0
  I  I5  1  0.62492400  0.62492400  0.12522800  1.0
  I  I6  1  0.37512100  0.37512100  0.87463700  1.0
  I  I7  1  0.20825100  0.20825100  0.37524700  1.0
