# generated using pymatgen
data_CuTe2Cl
_symmetry_space_group_name_H-M   'P 1'
_cell_length_a   5.16216500
_cell_length_b   8.24194100
_cell_length_c   11.40076480
_cell_angle_alpha   103.49627007
_cell_angle_beta   90.00000000
_cell_angle_gamma   90.00000000
_symmetry_Int_Tables_number   1
_chemical_formula_structural   CuTe2Cl
_chemical_formula_sum   'Cu4 Te8 Cl4'
_cell_volume   471.66502311
_cell_formula_units_Z   4
loop_
 _symmetry_equiv_pos_site_id
 _symmetry_equiv_pos_as_xyz
  1  'x, y, z'
loop_
 _atom_site_type_symbol
 _atom_site_label
 _atom_site_symmetry_multiplicity
 _atom_site_fract_x
 _atom_site_fract_y
 _atom_site_fract_z
 _atom_site_occupancy
  Cu  Cu0  1  0.86100400  0.57804000  0.74790900  1.0
  Cu  Cu1  1  0.36100400  0.92196000  0.75209100  1.0
  Cu  Cu2  1  0.13899600  0.42196000  0.25209100  1.0
  Cu  Cu3  1  0.63899600  0.07804000  0.24790900  1.0
  Te  Te4  1  0.20307700  0.44023200  0.85502300  1.0
  Te  Te5  1  0.70307700  0.05976800  0.64497700  1.0
  Te  Te6  1  0.79692300  0.55976800  0.14497700  1.0
  Te  Te7  1  0.29692300  0.94023200  0.35502300  1.0
  Te  Te8  1  0.02251200  0.12975600  0.85925000  1.0
  Te  Te9  1  0.52251200  0.37024400  0.64075000  1.0
  Te  Te10  1  0.97748800  0.87024400  0.14075000  1.0
  Te  Te11  1  0.47748800  0.62975600  0.35925000  1.0
  Cl  Cl12  1  0.11187900  0.71232400  0.62740300  1.0
  Cl  Cl13  1  0.61187900  0.78767600  0.87259700  1.0
  Cl  Cl14  1  0.88812100  0.28767600  0.37259700  1.0
  Cl  Cl15  1  0.38812100  0.21232400  0.12740300  1.0
