# generated using pymatgen
data_Dy(PPt4)2
_symmetry_space_group_name_H-M   'P 1'
_cell_length_a   4.05994600
_cell_length_b   6.34040367
_cell_length_c   7.74726008
_cell_angle_alpha   83.16906007
_cell_angle_beta   74.80976915
_cell_angle_gamma   71.32711866
_symmetry_Int_Tables_number   1
_chemical_formula_structural   Dy(PPt4)2
_chemical_formula_sum   'Dy1 P2 Pt8'
_cell_volume   182.19510709
_cell_formula_units_Z   1
loop_
 _symmetry_equiv_pos_site_id
 _symmetry_equiv_pos_as_xyz
  1  'x, y, z'
loop_
 _atom_site_type_symbol
 _atom_site_label
 _atom_site_symmetry_multiplicity
 _atom_site_fract_x
 _atom_site_fract_y
 _atom_site_fract_z
 _atom_site_occupancy
  Dy  Dy0  1  0.50000000  0.50000000  0.50000000  1.0
  P  P1  1  0.05836400  0.17383200  0.70944000  1.0
  P  P2  1  0.94163600  0.82616800  0.29056000  1.0
  Pt  Pt3  1  0.22363000  0.13903300  0.41370700  1.0
  Pt  Pt4  1  0.82301100  0.50984500  0.84413300  1.0
  Pt  Pt5  1  0.17698900  0.49015500  0.15586700  1.0
  Pt  Pt6  1  0.16633100  0.81943700  0.84790100  1.0
  Pt  Pt7  1  0.47496100  0.18117500  0.86890300  1.0
  Pt  Pt8  1  0.52503900  0.81882500  0.13109700  1.0
  Pt  Pt9  1  0.77637000  0.86096700  0.58629300  1.0
  Pt  Pt10  1  0.83366900  0.18056300  0.15209900  1.0
