# generated using pymatgen
data_Dy2CO5
_symmetry_space_group_name_H-M   'P 1'
_cell_length_a   3.83875200
_cell_length_b   3.88803227
_cell_length_c   15.24768000
_cell_angle_alpha   90.00000000
_cell_angle_beta   90.00000000
_cell_angle_gamma   119.58159725
_symmetry_Int_Tables_number   1
_chemical_formula_structural   Dy2CO5
_chemical_formula_sum   'Dy4 C2 O10'
_cell_volume   197.91100821
_cell_formula_units_Z   2
loop_
 _symmetry_equiv_pos_site_id
 _symmetry_equiv_pos_as_xyz
  1  'x, y, z'
loop_
 _atom_site_type_symbol
 _atom_site_label
 _atom_site_symmetry_multiplicity
 _atom_site_fract_x
 _atom_site_fract_y
 _atom_site_fract_z
 _atom_site_occupancy
  Dy  Dy0  1  0.66489300  0.32978600  0.09301900  1.0
  Dy  Dy1  1  0.33510700  0.67021400  0.90698100  1.0
  Dy  Dy2  1  0.33510700  0.67021400  0.59301900  1.0
  Dy  Dy3  1  0.66489300  0.32978600  0.40698100  1.0
  C  C4  1  0.91442600  0.82885200  0.25000000  1.0
  C  C5  1  0.08557400  0.17114800  0.75000000  1.0
  O  O6  1  0.00383100  0.00766200  0.17428800  1.0
  O  O7  1  0.99616900  0.99233800  0.82571200  1.0
  O  O8  1  0.99616900  0.99233800  0.67428800  1.0
  O  O9  1  0.00383100  0.00766200  0.32571200  1.0
  O  O10  1  0.66724700  0.33449400  0.55721100  1.0
  O  O11  1  0.33275300  0.66550600  0.44278900  1.0
  O  O12  1  0.33275300  0.66550600  0.05721100  1.0
  O  O13  1  0.66724700  0.33449400  0.94278900  1.0
  O  O14  1  0.72503400  0.45006800  0.25000000  1.0
  O  O15  1  0.27496600  0.54993200  0.75000000  1.0
