# generated using pymatgen
data_Dy2Ge5Ru3
_symmetry_space_group_name_H-M   'P 1'
_cell_length_a   5.80622600
_cell_length_b   8.46953422
_cell_length_c   8.46953422
_cell_angle_alpha   71.40534385
_cell_angle_beta   69.95419497
_cell_angle_gamma   69.95419497
_symmetry_Int_Tables_number   1
_chemical_formula_structural   Dy2Ge5Ru3
_chemical_formula_sum   'Dy4 Ge10 Ru6'
_cell_volume   357.86533555
_cell_formula_units_Z   2
loop_
 _symmetry_equiv_pos_site_id
 _symmetry_equiv_pos_as_xyz
  1  'x, y, z'
loop_
 _atom_site_type_symbol
 _atom_site_label
 _atom_site_symmetry_multiplicity
 _atom_site_fract_x
 _atom_site_fract_y
 _atom_site_fract_z
 _atom_site_occupancy
  Dy  Dy0  1  0.63720200  0.59438600  0.13121000  1.0
  Dy  Dy1  1  0.36279800  0.40561400  0.86879000  1.0
  Dy  Dy2  1  0.13720200  0.13121000  0.59438600  1.0
  Dy  Dy3  1  0.86279800  0.86879000  0.40561400  1.0
  Ge  Ge4  1  0.25000000  0.50000000  0.50000000  1.0
  Ge  Ge5  1  0.75000000  0.50000000  0.50000000  1.0
  Ge  Ge6  1  0.45980900  0.79019100  0.79019100  1.0
  Ge  Ge7  1  0.04019100  0.20980900  0.20980900  1.0
  Ge  Ge8  1  0.54019100  0.20980900  0.20980900  1.0
  Ge  Ge9  1  0.95980900  0.79019100  0.79019100  1.0
  Ge  Ge10  1  0.90993500  0.26280300  0.91732700  1.0
  Ge  Ge11  1  0.09006500  0.73719700  0.08267300  1.0
  Ge  Ge12  1  0.40993500  0.91732700  0.26280300  1.0
  Ge  Ge13  1  0.59006500  0.08267300  0.73719700  1.0
  Ru  Ru14  1  0.25000000  1.00000000  1.00000000  1.0
  Ru  Ru15  1  0.75000000  0.00000000  1.00000000  1.0
  Ru  Ru16  1  0.85354100  0.55206500  0.74085300  1.0
  Ru  Ru17  1  0.14645900  0.44793500  0.25914700  1.0
  Ru  Ru18  1  0.35354100  0.74085300  0.55206500  1.0
  Ru  Ru19  1  0.64645900  0.25914700  0.44793500  1.0
