# generated using pymatgen
data_Dy2Ge5Ir3
_symmetry_space_group_name_H-M   'P 1'
_cell_length_a   6.03222600
_cell_length_b   8.39524834
_cell_length_c   8.39524834
_cell_angle_alpha   75.48888134
_cell_angle_beta   68.94497909
_cell_angle_gamma   68.94497908
_symmetry_Int_Tables_number   1
_chemical_formula_structural   Dy2Ge5Ir3
_chemical_formula_sum   'Dy4 Ge10 Ir6'
_cell_volume   366.65698534
_cell_formula_units_Z   2
loop_
 _symmetry_equiv_pos_site_id
 _symmetry_equiv_pos_as_xyz
  1  'x, y, z'
loop_
 _atom_site_type_symbol
 _atom_site_label
 _atom_site_symmetry_multiplicity
 _atom_site_fract_x
 _atom_site_fract_y
 _atom_site_fract_z
 _atom_site_occupancy
  Dy  Dy0  1  0.63445300  0.59198300  0.13911100  1.0
  Dy  Dy1  1  0.36554700  0.40801700  0.86088900  1.0
  Dy  Dy2  1  0.13445200  0.13911100  0.59198400  1.0
  Dy  Dy3  1  0.86554800  0.86088900  0.40801600  1.0
  Ge  Ge4  1  0.25000000  0.50000000  0.50000000  1.0
  Ge  Ge5  1  0.75000000  0.50000000  0.50000000  1.0
  Ge  Ge6  1  0.47348300  0.77651700  0.77651700  1.0
  Ge  Ge7  1  0.02651700  0.22348300  0.22348300  1.0
  Ge  Ge8  1  0.52651700  0.22348300  0.22348300  1.0
  Ge  Ge9  1  0.97348300  0.77651700  0.77651700  1.0
  Ge  Ge10  1  0.90183100  0.26030600  0.93603300  1.0
  Ge  Ge11  1  0.09816900  0.73969400  0.06396700  1.0
  Ge  Ge12  1  0.40183000  0.93603400  0.26030600  1.0
  Ge  Ge13  1  0.59817000  0.06396600  0.73969400  1.0
  Ir  Ir14  1  0.25000000  0.00000000  1.00000000  1.0
  Ir  Ir15  1  0.75000000  1.00000000  1.00000000  1.0
  Ir  Ir16  1  0.85793500  0.53098900  0.75314100  1.0
  Ir  Ir17  1  0.14206500  0.46901100  0.24685900  1.0
  Ir  Ir18  1  0.35793400  0.75314100  0.53099000  1.0
  Ir  Ir19  1  0.64206600  0.24685900  0.46901000  1.0
