# generated using pymatgen
data_Dy2TeS2
_symmetry_space_group_name_H-M   'P 1'
_cell_length_a   4.20722600
_cell_length_b   5.34221600
_cell_length_c   7.59688087
_cell_angle_alpha   110.58556954
_cell_angle_beta   106.07556177
_cell_angle_gamma   90.00000000
_symmetry_Int_Tables_number   1
_chemical_formula_structural   Dy2TeS2
_chemical_formula_sum   'Dy2 Te1 S2'
_cell_volume   152.69166831
_cell_formula_units_Z   1
loop_
 _symmetry_equiv_pos_site_id
 _symmetry_equiv_pos_as_xyz
  1  'x, y, z'
loop_
 _atom_site_type_symbol
 _atom_site_label
 _atom_site_symmetry_multiplicity
 _atom_site_fract_x
 _atom_site_fract_y
 _atom_site_fract_z
 _atom_site_occupancy
  Dy  Dy0  1  0.66601100  0.16601100  0.33202200  1.0
  Dy  Dy1  1  0.33398900  0.83398900  0.66797800  1.0
  Te  Te2  1  0.00000000  0.00000000  0.00000000  1.0
  S  S3  1  0.29353500  0.29353500  0.58707000  1.0
  S  S4  1  0.70646500  0.70646500  0.41293000  1.0
