# generated using pymatgen
data_Dy7(TePd)2
_symmetry_space_group_name_H-M   'P 1'
_cell_length_a   3.95990200
_cell_length_b   9.47980260
_cell_length_c   9.47980260
_cell_angle_alpha   61.58009816
_cell_angle_beta   77.94444983
_cell_angle_gamma   77.94444982
_symmetry_Int_Tables_number   1
_chemical_formula_structural   Dy7(TePd)2
_chemical_formula_sum   'Dy7 Te2 Pd2'
_cell_volume   303.58452247
_cell_formula_units_Z   1
loop_
 _symmetry_equiv_pos_site_id
 _symmetry_equiv_pos_as_xyz
  1  'x, y, z'
loop_
 _atom_site_type_symbol
 _atom_site_label
 _atom_site_symmetry_multiplicity
 _atom_site_fract_x
 _atom_site_fract_y
 _atom_site_fract_z
 _atom_site_occupancy
  Dy  Dy0  1  0.35718100  0.90835700  0.37728100  1.0
  Dy  Dy1  1  0.64281900  0.62271900  0.09164300  1.0
  Dy  Dy2  1  0.00000000  0.00060000  0.99940000  1.0
  Dy  Dy3  1  0.12840600  0.28736400  0.45582400  1.0
  Dy  Dy4  1  0.87159400  0.54417600  0.71263600  1.0
  Dy  Dy5  1  0.31661400  0.30652700  0.06024500  1.0
  Dy  Dy6  1  0.68338600  0.93975500  0.69347300  1.0
  Te  Te7  1  0.50000000  0.26247200  0.73752800  1.0
  Te  Te8  1  1.00000000  0.66295200  0.33704800  1.0
  Pd  Pd9  1  0.23739700  0.69057200  0.83463400  1.0
  Pd  Pd10  1  0.76260300  0.16536600  0.30942800  1.0
