# generated using pymatgen
data_DyTl(PSe3)2
_symmetry_space_group_name_H-M   'P 1'
_cell_length_a   6.87366600
_cell_length_b   7.65402400
_cell_length_c   10.43181785
_cell_angle_alpha   90.00000000
_cell_angle_beta   88.93654322
_cell_angle_gamma   90.00000000
_symmetry_Int_Tables_number   1
_chemical_formula_structural   DyTl(PSe3)2
_chemical_formula_sum   'Dy2 Tl2 P4 Se12'
_cell_volume   548.73596808
_cell_formula_units_Z   2
loop_
 _symmetry_equiv_pos_site_id
 _symmetry_equiv_pos_as_xyz
  1  'x, y, z'
loop_
 _atom_site_type_symbol
 _atom_site_label
 _atom_site_symmetry_multiplicity
 _atom_site_fract_x
 _atom_site_fract_y
 _atom_site_fract_z
 _atom_site_occupancy
  Dy  Dy0  1  0.71721200  0.50327400  0.49782600  1.0
  Dy  Dy1  1  0.28278800  0.00327400  0.50217400  1.0
  Tl  Tl2  1  0.18360900  0.77988400  0.00762800  1.0
  Tl  Tl3  1  0.81639100  0.27988400  0.99237200  1.0
  P  P4  1  0.81352000  0.99031300  0.32687000  1.0
  P  P5  1  0.18648000  0.49031300  0.67313000  1.0
  P  P6  1  0.68943300  0.77233400  0.20634200  1.0
  P  P7  1  0.31056700  0.27233400  0.79365800  1.0
  Se  Se8  1  0.90942000  0.58698700  0.75290700  1.0
  Se  Se9  1  0.09058000  0.08698700  0.24709300  1.0
  Se  Se10  1  0.89873200  0.56014000  0.23402300  1.0
  Se  Se11  1  0.10126800  0.06014000  0.76597700  1.0
  Se  Se12  1  0.87300400  0.86439500  0.51713400  1.0
  Se  Se13  1  0.12699600  0.36439500  0.48286600  1.0
  Se  Se14  1  0.65298600  0.86445500  0.01295600  1.0
  Se  Se15  1  0.34701400  0.36445500  0.98704400  1.0
  Se  Se16  1  0.57614900  0.18996100  0.33385500  1.0
  Se  Se17  1  0.42385100  0.68996100  0.66614500  1.0
  Se  Se18  1  0.43383200  0.69523700  0.33211800  1.0
  Se  Se19  1  0.56616800  0.19523700  0.66788200  1.0
