# generated using pymatgen
data_Er(CuO2)2
_symmetry_space_group_name_H-M   'P 1'
_cell_length_a   5.65649800
_cell_length_b   6.24775654
_cell_length_c   5.65649800
_cell_angle_alpha   63.08408972
_cell_angle_beta   90.00000000
_cell_angle_gamma   116.91591027
_symmetry_Int_Tables_number   1
_chemical_formula_structural   Er(CuO2)2
_chemical_formula_sum   'Er2 Cu4 O8'
_cell_volume   153.56891189
_cell_formula_units_Z   2
loop_
 _symmetry_equiv_pos_site_id
 _symmetry_equiv_pos_as_xyz
  1  'x, y, z'
loop_
 _atom_site_type_symbol
 _atom_site_label
 _atom_site_symmetry_multiplicity
 _atom_site_fract_x
 _atom_site_fract_y
 _atom_site_fract_z
 _atom_site_occupancy
  Er  Er0  1  0.50000000  0.00000000  0.50000000  1.0
  Er  Er1  1  0.25000000  0.50000000  0.25000000  1.0
  Cu  Cu2  1  0.37500000  0.25000000  0.87500000  1.0
  Cu  Cu3  1  0.87500000  0.25000000  0.87500000  1.0
  Cu  Cu4  1  0.87500000  0.75000000  0.87500000  1.0
  Cu  Cu5  1  0.87500000  0.75000000  0.37500000  1.0
  O  O6  1  0.90380000  0.10543300  0.24216200  1.0
  O  O7  1  0.20163200  0.10543100  0.65240600  1.0
  O  O8  1  0.84620000  0.39456700  0.50783800  1.0
  O  O9  1  0.54836800  0.39456900  0.09759400  1.0
  O  O10  1  0.50783700  0.60543200  0.54836800  1.0
  O  O11  1  0.09759500  0.60543200  0.84620000  1.0
  O  O12  1  0.65240500  0.89456800  0.90380000  1.0
  O  O13  1  0.24216300  0.89456800  0.20163200  1.0
