# generated using pymatgen
data_Er2Te3
_symmetry_space_group_name_H-M   'P 1'
_cell_length_a   7.51274531
_cell_length_b   7.51274531
_cell_length_c   13.68955534
_cell_angle_alpha   100.58576260
_cell_angle_beta   100.58576263
_cell_angle_gamma   109.29949858
_symmetry_Int_Tables_number   1
_chemical_formula_structural   Er2Te3
_chemical_formula_sum   'Er8 Te12'
_cell_volume   691.50030480
_cell_formula_units_Z   4
loop_
 _symmetry_equiv_pos_site_id
 _symmetry_equiv_pos_as_xyz
  1  'x, y, z'
loop_
 _atom_site_type_symbol
 _atom_site_label
 _atom_site_symmetry_multiplicity
 _atom_site_fract_x
 _atom_site_fract_y
 _atom_site_fract_z
 _atom_site_occupancy
  Er  Er0  1  0.00046900  0.50046900  0.00093800  1.0
  Er  Er1  1  0.49953100  0.99953100  0.99906200  1.0
  Er  Er2  1  0.24953100  0.24953100  0.49906200  1.0
  Er  Er3  1  0.75046900  0.75046900  0.50093800  1.0
  Er  Er4  1  0.66731900  0.16731900  0.33463800  1.0
  Er  Er5  1  0.83268100  0.33268100  0.66536200  1.0
  Er  Er6  1  0.58268100  0.58268100  0.16536200  1.0
  Er  Er7  1  0.41731900  0.41731900  0.83463800  1.0
  Te  Te8  1  0.66872300  0.16945400  0.83445400  1.0
  Te  Te9  1  0.33500000  0.83426900  0.16554600  1.0
  Te  Te10  1  0.83054600  0.33127700  0.16554600  1.0
  Te  Te11  1  0.16573100  0.66500000  0.83445400  1.0
  Te  Te12  1  0.58127700  0.58054600  0.66554600  1.0
  Te  Te13  1  0.91500000  0.91573100  0.33445400  1.0
  Te  Te14  1  0.41945400  0.41872300  0.33445400  1.0
  Te  Te15  1  0.08426900  0.08500000  0.66554600  1.0
  Te  Te16  1  0.75140400  0.75140400  0.00000000  1.0
  Te  Te17  1  0.24859600  0.24859600  0.00000000  1.0
  Te  Te18  1  0.49859600  0.99859600  0.50000000  1.0
  Te  Te19  1  0.00140400  0.50140400  0.50000000  1.0
