# generated using pymatgen
data_Er5NiPb3
_symmetry_space_group_name_H-M   'P 1'
_cell_length_a   6.64686000
_cell_length_b   9.10223600
_cell_length_c   9.10223547
_cell_angle_alpha   120.00000191
_cell_angle_beta   90.00000000
_cell_angle_gamma   90.00000000
_symmetry_Int_Tables_number   1
_chemical_formula_structural   Er5NiPb3
_chemical_formula_sum   'Er10 Ni2 Pb6'
_cell_volume   476.91755905
_cell_formula_units_Z   2
loop_
 _symmetry_equiv_pos_site_id
 _symmetry_equiv_pos_as_xyz
  1  'x, y, z'
loop_
 _atom_site_type_symbol
 _atom_site_label
 _atom_site_symmetry_multiplicity
 _atom_site_fract_x
 _atom_site_fract_y
 _atom_site_fract_z
 _atom_site_occupancy
  Er  Er0  1  0.25000000  0.00000000  0.76246700  1.0
  Er  Er1  1  0.75000000  0.76246700  0.76246700  1.0
  Er  Er2  1  0.25000000  0.23753300  0.23753300  1.0
  Er  Er3  1  0.50000000  0.66666667  0.33333333  1.0
  Er  Er4  1  0.75000000  1.00000000  0.23753300  1.0
  Er  Er5  1  0.50000000  0.33333333  0.66666667  1.0
  Er  Er6  1  0.75000000  0.23753300  1.00000000  1.0
  Er  Er7  1  0.25000000  0.76246700  1.00000000  1.0
  Er  Er8  1  1.00000000  0.66666667  0.33333333  1.0
  Er  Er9  1  0.00000000  0.33333333  0.66666667  1.0
  Ni  Ni10  1  0.00000000  0.00000000  0.00000000  1.0
  Ni  Ni11  1  0.50000000  0.00000000  0.00000000  1.0
  Pb  Pb12  1  0.75000000  0.60068800  0.00000000  1.0
  Pb  Pb13  1  0.25000000  1.00000000  0.39931200  1.0
  Pb  Pb14  1  0.75000000  0.00000000  0.60068800  1.0
  Pb  Pb15  1  0.75000000  0.39931200  0.39931200  1.0
  Pb  Pb16  1  0.25000000  0.60068800  0.60068800  1.0
  Pb  Pb17  1  0.25000000  0.39931200  1.00000000  1.0
