# generated using pymatgen
data_Er5Re2C7
_symmetry_space_group_name_H-M   'P 1'
_cell_length_a   3.40124200
_cell_length_b   7.96792200
_cell_length_c   8.26626693
_cell_angle_alpha   118.81310342
_cell_angle_beta   90.00000000
_cell_angle_gamma   90.00000000
_symmetry_Int_Tables_number   1
_chemical_formula_structural   Er5Re2C7
_chemical_formula_sum   'Er5 Re2 C7'
_cell_volume   196.28790372
_cell_formula_units_Z   1
loop_
 _symmetry_equiv_pos_site_id
 _symmetry_equiv_pos_as_xyz
  1  'x, y, z'
loop_
 _atom_site_type_symbol
 _atom_site_label
 _atom_site_symmetry_multiplicity
 _atom_site_fract_x
 _atom_site_fract_y
 _atom_site_fract_z
 _atom_site_occupancy
  Er  Er0  1  0.00000000  0.50000000  1.00000000  1.0
  Er  Er1  1  0.50000000  0.92342000  0.25897100  1.0
  Er  Er2  1  0.50000000  0.07658000  0.74102900  1.0
  Er  Er3  1  0.50000000  0.33555100  0.25897100  1.0
  Er  Er4  1  0.50000000  0.66444900  0.74102900  1.0
  Re  Re5  1  0.00000000  0.28575600  0.57151200  1.0
  Re  Re6  1  1.00000000  0.71424400  0.42848800  1.0
  C  C7  1  0.50000000  0.37493500  0.74987000  1.0
  C  C8  1  0.50000000  0.62506500  0.25013000  1.0
  C  C9  1  0.00000000  0.00000000  0.00000000  1.0
  C  C10  1  0.00000000  0.82984100  1.00000000  1.0
  C  C11  1  1.00000000  0.17015900  1.00000000  1.0
  C  C12  1  1.00000000  1.00000000  0.50000000  1.0
  C  C13  1  0.00000000  0.50000000  0.50000000  1.0
