# generated using pymatgen
data_Er5SbPt2
_symmetry_space_group_name_H-M   'P 1'
_cell_length_a   7.68009200
_cell_length_b   8.71471822
_cell_length_c   7.68009200
_cell_angle_alpha   63.85533169
_cell_angle_beta   90.00000000
_cell_angle_gamma   116.14466830
_symmetry_Int_Tables_number   1
_chemical_formula_structural   Er5SbPt2
_chemical_formula_sum   'Er10 Sb2 Pt4'
_cell_volume   402.01874678
_cell_formula_units_Z   2
loop_
 _symmetry_equiv_pos_site_id
 _symmetry_equiv_pos_as_xyz
  1  'x, y, z'
loop_
 _atom_site_type_symbol
 _atom_site_label
 _atom_site_symmetry_multiplicity
 _atom_site_fract_x
 _atom_site_fract_y
 _atom_site_fract_z
 _atom_site_occupancy
  Er  Er0  1  0.00000000  0.00000000  0.00000000  1.0
  Er  Er1  1  0.50000000  0.00000000  0.50000000  1.0
  Er  Er2  1  0.79838800  0.27628200  0.02210600  1.0
  Er  Er3  1  0.20161200  0.72371800  0.97789400  1.0
  Er  Er4  1  0.47789300  0.27628000  0.70161300  1.0
  Er  Er5  1  0.29838800  0.27628100  0.20161200  1.0
  Er  Er6  1  0.02210700  0.72371900  0.47789300  1.0
  Er  Er7  1  0.52210700  0.72372000  0.29838700  1.0
  Er  Er8  1  0.70161200  0.72371900  0.79838800  1.0
  Er  Er9  1  0.97789300  0.27628100  0.52210700  1.0
  Sb  Sb10  1  0.25000000  0.50000000  0.75000000  1.0
  Sb  Sb11  1  0.75000000  0.50000000  0.25000000  1.0
  Pt  Pt12  1  0.13534800  1.00000000  0.63534800  1.0
  Pt  Pt13  1  0.86465200  0.00000000  0.36465200  1.0
  Pt  Pt14  1  0.63534800  0.00000000  0.86465200  1.0
  Pt  Pt15  1  0.36465200  1.00000000  0.13534800  1.0
