# generated using pymatgen
data_ErAlSi
_symmetry_space_group_name_H-M   'P 1'
_cell_length_a   4.07845000
_cell_length_b   4.07845000
_cell_length_c   7.78767761
_cell_angle_alpha   105.18002015
_cell_angle_beta   105.18003537
_cell_angle_gamma   90.00000000
_symmetry_Int_Tables_number   1
_chemical_formula_structural   ErAlSi
_chemical_formula_sum   'Er2 Al2 Si2'
_cell_volume   120.32891197
_cell_formula_units_Z   2
loop_
 _symmetry_equiv_pos_site_id
 _symmetry_equiv_pos_as_xyz
  1  'x, y, z'
loop_
 _atom_site_type_symbol
 _atom_site_label
 _atom_site_symmetry_multiplicity
 _atom_site_fract_x
 _atom_site_fract_y
 _atom_site_fract_z
 _atom_site_occupancy
  Er  Er0  1  0.87636800  0.12636700  0.75273500  1.0
  Er  Er1  1  0.12636800  0.87636700  0.25273500  1.0
  Al  Al2  1  0.54182500  0.29182500  0.08365000  1.0
  Al  Al3  1  0.29182500  0.54182500  0.58365000  1.0
  Si  Si4  1  0.45680800  0.70680700  0.91361500  1.0
  Si  Si5  1  0.70680800  0.45680700  0.41361500  1.0
