# generated using pymatgen
data_ErNiSn4
_symmetry_space_group_name_H-M   'P 1'
_cell_length_a   4.44267200
_cell_length_b   4.46915800
_cell_length_c   14.33099466
_cell_angle_alpha   90.00000000
_cell_angle_beta   98.91692506
_cell_angle_gamma   90.00000000
_symmetry_Int_Tables_number   1
_chemical_formula_structural   ErNiSn4
_chemical_formula_sum   'Er2 Ni2 Sn8'
_cell_volume   281.10300426
_cell_formula_units_Z   2
loop_
 _symmetry_equiv_pos_site_id
 _symmetry_equiv_pos_as_xyz
  1  'x, y, z'
loop_
 _atom_site_type_symbol
 _atom_site_label
 _atom_site_symmetry_multiplicity
 _atom_site_fract_x
 _atom_site_fract_y
 _atom_site_fract_z
 _atom_site_occupancy
  Er  Er0  1  0.80694100  0.50000000  0.61388200  1.0
  Er  Er1  1  0.19305900  0.50000000  0.38611800  1.0
  Ni  Ni2  1  0.55121300  1.00000000  0.10242600  1.0
  Ni  Ni3  1  0.44878700  1.00000000  0.89757400  1.0
  Sn  Sn4  1  0.60835100  0.50000000  0.21670200  1.0
  Sn  Sn5  1  0.39164900  0.50000000  0.78329800  1.0
  Sn  Sn6  1  0.71378000  1.00000000  0.42756000  1.0
  Sn  Sn7  1  0.28622000  1.00000000  0.57244000  1.0
  Sn  Sn8  1  0.89091600  1.00000000  0.78183200  1.0
  Sn  Sn9  1  0.10908400  0.00000000  0.21816800  1.0
  Sn  Sn10  1  0.00000000  0.00000000  0.00000000  1.0
  Sn  Sn11  1  0.50000000  0.50000000  1.00000000  1.0
