# generated using pymatgen
data_ErSi2Ni
_symmetry_space_group_name_H-M   'P 1'
_cell_length_a   3.94250700
_cell_length_b   3.95045400
_cell_length_c   8.49276983
_cell_angle_alpha   103.44886638
_cell_angle_beta   90.00000000
_cell_angle_gamma   90.00000000
_symmetry_Int_Tables_number   1
_chemical_formula_structural   ErSi2Ni
_chemical_formula_sum   'Er2 Si4 Ni2'
_cell_volume   128.64509163
_cell_formula_units_Z   2
loop_
 _symmetry_equiv_pos_site_id
 _symmetry_equiv_pos_as_xyz
  1  'x, y, z'
loop_
 _atom_site_type_symbol
 _atom_site_label
 _atom_site_symmetry_multiplicity
 _atom_site_fract_x
 _atom_site_fract_y
 _atom_site_fract_z
 _atom_site_occupancy
  Er  Er0  1  0.75000000  0.89458100  0.78916200  1.0
  Er  Er1  1  0.25000000  0.10541900  0.21083800  1.0
  Si  Si2  1  0.75000000  0.25077100  0.50154200  1.0
  Si  Si3  1  0.25000000  0.74922900  0.49845800  1.0
  Si  Si4  1  0.25000000  0.46023800  0.92047600  1.0
  Si  Si5  1  0.75000000  0.53976200  0.07952400  1.0
  Ni  Ni6  1  0.25000000  0.32389200  0.64778400  1.0
  Ni  Ni7  1  0.75000000  0.67610800  0.35221600  1.0
