# generated using pymatgen
data_Eu(CuO2)2
_symmetry_space_group_name_H-M   'P 1'
_cell_length_a   5.84528000
_cell_length_b   6.36447627
_cell_length_c   5.84528000
_cell_angle_alpha   117.33623170
_cell_angle_beta   89.99999999
_cell_angle_gamma   117.33623171
_symmetry_Int_Tables_number   1
_chemical_formula_structural   Eu(CuO2)2
_chemical_formula_sum   'Eu2 Cu4 O8'
_cell_volume   165.36022523
_cell_formula_units_Z   2
loop_
 _symmetry_equiv_pos_site_id
 _symmetry_equiv_pos_as_xyz
  1  'x, y, z'
loop_
 _atom_site_type_symbol
 _atom_site_label
 _atom_site_symmetry_multiplicity
 _atom_site_fract_x
 _atom_site_fract_y
 _atom_site_fract_z
 _atom_site_occupancy
  Eu  Eu0  1  0.00000000  0.00000000  0.00000000  1.0
  Eu  Eu1  1  0.25000000  0.50000000  0.75000000  1.0
  Cu  Cu2  1  0.62500000  0.25000000  0.87500000  1.0
  Cu  Cu3  1  0.62500000  0.25000000  0.37500000  1.0
  Cu  Cu4  1  0.62500000  0.75000000  0.37500000  1.0
  Cu  Cu5  1  0.12500000  0.75000000  0.37500000  1.0
  O  O6  1  0.27184300  0.09835600  0.40314500  1.0
  O  O7  1  0.82651300  0.09835600  0.69521100  1.0
  O  O8  1  0.97815700  0.40164400  0.34685500  1.0
  O  O9  1  0.42348700  0.40164400  0.05478900  1.0
  O  O10  1  0.94521100  0.59835600  0.02184300  1.0
  O  O11  1  0.65314500  0.59835600  0.57651300  1.0
  O  O12  1  0.59685500  0.90164400  0.17348700  1.0
  O  O13  1  0.30478900  0.90164400  0.72815700  1.0
