# generated using pymatgen
data_Eu(PRu)2
_symmetry_space_group_name_H-M   'P 1'
_cell_length_a   4.05577200
_cell_length_b   4.05577200
_cell_length_c   6.10554335
_cell_angle_alpha   109.39862515
_cell_angle_beta   109.39862514
_cell_angle_gamma   90.00000001
_symmetry_Int_Tables_number   1
_chemical_formula_structural   Eu(PRu)2
_chemical_formula_sum   'Eu1 P2 Ru2'
_cell_volume   88.66305264
_cell_formula_units_Z   1
loop_
 _symmetry_equiv_pos_site_id
 _symmetry_equiv_pos_as_xyz
  1  'x, y, z'
loop_
 _atom_site_type_symbol
 _atom_site_label
 _atom_site_symmetry_multiplicity
 _atom_site_fract_x
 _atom_site_fract_y
 _atom_site_fract_z
 _atom_site_occupancy
  Eu  Eu0  1  0.00000000  0.00000000  0.00000000  1.0
  P  P1  1  0.64300500  0.64300500  0.28601000  1.0
  P  P2  1  0.35699500  0.35699500  0.71399000  1.0
  Ru  Ru3  1  0.75000000  0.25000000  0.50000000  1.0
  Ru  Ru4  1  0.25000000  0.75000000  0.50000000  1.0
