# generated using pymatgen
data_Eu2HoTaO6
_symmetry_space_group_name_H-M   'P 1'
_cell_length_a   5.79287000
_cell_length_b   5.90178900
_cell_length_c   8.24847563
_cell_angle_alpha   90.00000000
_cell_angle_beta   90.11847492
_cell_angle_gamma   90.00000000
_symmetry_Int_Tables_number   1
_chemical_formula_structural   Eu2HoTaO6
_chemical_formula_sum   'Eu4 Ho2 Ta2 O12'
_cell_volume   282.00072726
_cell_formula_units_Z   2
loop_
 _symmetry_equiv_pos_site_id
 _symmetry_equiv_pos_as_xyz
  1  'x, y, z'
loop_
 _atom_site_type_symbol
 _atom_site_label
 _atom_site_symmetry_multiplicity
 _atom_site_fract_x
 _atom_site_fract_y
 _atom_site_fract_z
 _atom_site_occupancy
  Eu  Eu0  1  0.48709000  0.45718400  0.24941700  1.0
  Eu  Eu1  1  0.98709000  0.04281600  0.74941700  1.0
  Eu  Eu2  1  0.51291000  0.54281600  0.75058300  1.0
  Eu  Eu3  1  0.01291000  0.95718400  0.25058300  1.0
  Ho  Ho4  1  0.00000000  0.50000000  0.50000000  1.0
  Ho  Ho5  1  0.50000000  1.00000000  1.00000000  1.0
  Ta  Ta6  1  1.00000000  0.50000000  0.00000000  1.0
  Ta  Ta7  1  0.50000000  0.00000000  0.50000000  1.0
  O  O8  1  0.59273200  0.02816300  0.26455900  1.0
  O  O9  1  0.09273200  0.47183700  0.76455900  1.0
  O  O10  1  0.40726800  0.97183700  0.73544100  1.0
  O  O11  1  0.90726800  0.52816300  0.23544100  1.0
  O  O12  1  0.77752300  0.80435900  0.54678300  1.0
  O  O13  1  0.27752300  0.69564100  0.04678300  1.0
  O  O14  1  0.22247700  0.19564100  0.45321700  1.0
  O  O15  1  0.72247700  0.30435900  0.95321700  1.0
  O  O16  1  0.80838300  0.77804300  0.94824100  1.0
  O  O17  1  0.30838300  0.72195700  0.44824100  1.0
  O  O18  1  0.19161700  0.22195700  0.05175900  1.0
  O  O19  1  0.69161700  0.27804300  0.55175900  1.0
