# generated using pymatgen
data_Eu2V2O5
_symmetry_space_group_name_H-M   'P 1'
_cell_length_a   5.55356400
_cell_length_b   5.78130200
_cell_length_c   8.77675081
_cell_angle_alpha   109.22952232
_cell_angle_beta   108.44409906
_cell_angle_gamma   89.99999999
_symmetry_Int_Tables_number   1
_chemical_formula_structural   Eu2V2O5
_chemical_formula_sum   'Eu4 V4 O10'
_cell_volume   250.69035848
_cell_formula_units_Z   2
loop_
 _symmetry_equiv_pos_site_id
 _symmetry_equiv_pos_as_xyz
  1  'x, y, z'
loop_
 _atom_site_type_symbol
 _atom_site_label
 _atom_site_symmetry_multiplicity
 _atom_site_fract_x
 _atom_site_fract_y
 _atom_site_fract_z
 _atom_site_occupancy
  Eu  Eu0  1  0.61252300  0.08718500  0.21664700  1.0
  Eu  Eu1  1  0.39587600  0.91281500  0.78335300  1.0
  Eu  Eu2  1  0.11252200  0.62946100  0.21664600  1.0
  Eu  Eu3  1  0.89587700  0.37053900  0.78335400  1.0
  V  V4  1  0.01099100  0.00000000  0.00000000  1.0
  V  V5  1  0.51099100  0.50000000  0.00000000  1.0
  V  V6  1  0.21297500  0.31610700  0.50000000  1.0
  V  V7  1  0.71297500  0.68389300  0.50000000  1.0
  O  O8  1  0.24611600  0.73523300  0.97712100  1.0
  O  O9  1  0.26899500  0.26476700  0.02287800  1.0
  O  O10  1  0.74611600  0.74188800  0.97712100  1.0
  O  O11  1  0.76899500  0.25811200  0.02287800  1.0
  O  O12  1  0.16756400  0.07663400  0.27707800  1.0
  O  O13  1  0.89048600  0.92336600  0.72292200  1.0
  O  O14  1  0.66756400  0.70044400  0.27707800  1.0
  O  O15  1  0.39048600  0.29955600  0.72292200  1.0
  O  O16  1  0.85847300  0.37442300  0.50000000  1.0
  O  O17  1  0.35847400  0.62557700  0.50000100  1.0
