# generated using pymatgen
data_Eu2ZnPtO6
_symmetry_space_group_name_H-M   'P 1'
_cell_length_a   5.53434100
_cell_length_b   5.79662200
_cell_length_c   7.83340248
_cell_angle_alpha   90.00000000
_cell_angle_beta   89.85386762
_cell_angle_gamma   90.00000000
_symmetry_Int_Tables_number   1
_chemical_formula_structural   Eu2ZnPtO6
_chemical_formula_sum   'Eu4 Zn2 Pt2 O12'
_cell_volume   251.29851601
_cell_formula_units_Z   2
loop_
 _symmetry_equiv_pos_site_id
 _symmetry_equiv_pos_as_xyz
  1  'x, y, z'
loop_
 _atom_site_type_symbol
 _atom_site_label
 _atom_site_symmetry_multiplicity
 _atom_site_fract_x
 _atom_site_fract_y
 _atom_site_fract_z
 _atom_site_occupancy
  Eu  Eu0  1  0.48408700  0.06286700  0.24719600  1.0
  Eu  Eu1  1  0.51591300  0.93713300  0.75280400  1.0
  Eu  Eu2  1  0.01591300  0.56286700  0.25280400  1.0
  Eu  Eu3  1  0.98408700  0.43713300  0.74719600  1.0
  Zn  Zn4  1  0.50000000  0.50000000  0.00000000  1.0
  Zn  Zn5  1  0.00000000  0.00000000  0.50000000  1.0
  Pt  Pt6  1  0.50000000  0.50000000  0.50000000  1.0
  Pt  Pt7  1  0.00000000  0.00000000  0.00000000  1.0
  O  O8  1  0.60347500  0.46284800  0.25283500  1.0
  O  O9  1  0.39652500  0.53715200  0.74716500  1.0
  O  O10  1  0.89652500  0.96284800  0.24716500  1.0
  O  O11  1  0.10347500  0.03715200  0.75283500  1.0
  O  O12  1  0.31193000  0.79289500  0.44434700  1.0
  O  O13  1  0.68807000  0.20710500  0.55565300  1.0
  O  O14  1  0.18807000  0.29289500  0.05565300  1.0
  O  O15  1  0.81193000  0.70710500  0.94434700  1.0
  O  O16  1  0.19936500  0.30790800  0.45206600  1.0
  O  O17  1  0.80063500  0.69209200  0.54793400  1.0
  O  O18  1  0.30063500  0.80790800  0.04793400  1.0
  O  O19  1  0.69936500  0.19209200  0.95206600  1.0
