# generated using pymatgen
data_Eu5Pd2
_symmetry_space_group_name_H-M   'P 1'
_cell_length_a   6.88960400
_cell_length_b   7.83136397
_cell_length_c   9.20571948
_cell_angle_alpha   96.74565539
_cell_angle_beta   111.97502269
_cell_angle_gamma   90.00000000
_symmetry_Int_Tables_number   1
_chemical_formula_structural   Eu5Pd2
_chemical_formula_sum   'Eu10 Pd4'
_cell_volume   456.89832282
_cell_formula_units_Z   2
loop_
 _symmetry_equiv_pos_site_id
 _symmetry_equiv_pos_as_xyz
  1  'x, y, z'
loop_
 _atom_site_type_symbol
 _atom_site_label
 _atom_site_symmetry_multiplicity
 _atom_site_fract_x
 _atom_site_fract_y
 _atom_site_fract_z
 _atom_site_occupancy
  Eu  Eu0  1  0.20086900  0.42033100  0.18388000  1.0
  Eu  Eu1  1  0.01698900  0.07966900  0.81612000  1.0
  Eu  Eu2  1  0.79913100  0.57966900  0.81612000  1.0
  Eu  Eu3  1  0.98301100  0.92033100  0.18388000  1.0
  Eu  Eu4  1  0.79758800  0.31719700  0.43712700  1.0
  Eu  Eu5  1  0.36046100  0.18280300  0.56287300  1.0
  Eu  Eu6  1  0.20241200  0.68280300  0.56287300  1.0
  Eu  Eu7  1  0.63953900  0.81719700  0.43712700  1.0
  Eu  Eu8  1  0.58517700  0.25000000  0.00000000  1.0
  Eu  Eu9  1  0.41482300  0.75000000  0.00000000  1.0
  Pd  Pd10  1  0.40399700  0.07926400  0.21817400  1.0
  Pd  Pd11  1  0.18582300  0.42073600  0.78182600  1.0
  Pd  Pd12  1  0.59600300  0.92073600  0.78182600  1.0
  Pd  Pd13  1  0.81417700  0.57926400  0.21817400  1.0
