# generated using pymatgen
data_Eu5Sb3
_symmetry_space_group_name_H-M   'P 1'
_cell_length_a   7.07286200
_cell_length_b   9.36321400
_cell_length_c   9.36321471
_cell_angle_alpha   60.00000249
_cell_angle_beta   90.00000000
_cell_angle_gamma   90.00000000
_symmetry_Int_Tables_number   1
_chemical_formula_structural   Eu5Sb3
_chemical_formula_sum   'Eu10 Sb6'
_cell_volume   537.00182200
_cell_formula_units_Z   2
loop_
 _symmetry_equiv_pos_site_id
 _symmetry_equiv_pos_as_xyz
  1  'x, y, z'
loop_
 _atom_site_type_symbol
 _atom_site_label
 _atom_site_symmetry_multiplicity
 _atom_site_fract_x
 _atom_site_fract_y
 _atom_site_fract_z
 _atom_site_occupancy
  Eu  Eu0  1  0.50000000  0.66666667  0.66666667  1.0
  Eu  Eu1  1  0.50000000  0.33333333  0.33333333  1.0
  Eu  Eu2  1  1.00000000  0.33333333  0.33333333  1.0
  Eu  Eu3  1  1.00000000  0.66666667  0.66666667  1.0
  Eu  Eu4  1  0.75000000  0.25394400  1.00000000  1.0
  Eu  Eu5  1  0.75000000  0.00000000  0.74605600  1.0
  Eu  Eu6  1  0.75000000  0.74605600  0.25394400  1.0
  Eu  Eu7  1  0.25000000  0.74605600  0.00000000  1.0
  Eu  Eu8  1  0.25000000  0.00000000  0.25394400  1.0
  Eu  Eu9  1  0.25000000  0.25394400  0.74605600  1.0
  Sb  Sb10  1  0.75000000  0.61049100  1.00000000  1.0
  Sb  Sb11  1  0.75000000  0.00000000  0.38950900  1.0
  Sb  Sb12  1  0.75000000  0.38950900  0.61049100  1.0
  Sb  Sb13  1  0.25000000  0.38950900  1.00000000  1.0
  Sb  Sb14  1  0.25000000  0.00000000  0.61049100  1.0
  Sb  Sb15  1  0.25000000  0.61049100  0.38950900  1.0
