# generated using pymatgen
data_EuAlSi
_symmetry_space_group_name_H-M   'P 1'
_cell_length_a   4.24369000
_cell_length_b   4.24368970
_cell_length_c   4.47834100
_cell_angle_alpha   90.00000000
_cell_angle_beta   90.00000000
_cell_angle_gamma   120.00000234
_symmetry_Int_Tables_number   1
_chemical_formula_structural   EuAlSi
_chemical_formula_sum   'Eu1 Al1 Si1'
_cell_volume   69.84495678
_cell_formula_units_Z   1
loop_
 _symmetry_equiv_pos_site_id
 _symmetry_equiv_pos_as_xyz
  1  'x, y, z'
loop_
 _atom_site_type_symbol
 _atom_site_label
 _atom_site_symmetry_multiplicity
 _atom_site_fract_x
 _atom_site_fract_y
 _atom_site_fract_z
 _atom_site_occupancy
  Eu  Eu0  1  0.66666667  0.33333333  1.00000000  1.0
  Al  Al1  1  0.00000000  0.00000000  0.50000000  1.0
  Si  Si2  1  0.33333333  0.66666667  0.50000000  1.0
