# generated using pymatgen
data_EuIn4
_symmetry_space_group_name_H-M   'P 1'
_cell_length_a   5.15180200
_cell_length_b   6.57248297
_cell_length_c   9.67152086
_cell_angle_alpha   73.49621657
_cell_angle_beta   74.55348191
_cell_angle_gamma   66.92585206
_symmetry_Int_Tables_number   1
_chemical_formula_structural   EuIn4
_chemical_formula_sum   'Eu2 In8'
_cell_volume   284.37294018
_cell_formula_units_Z   2
loop_
 _symmetry_equiv_pos_site_id
 _symmetry_equiv_pos_as_xyz
  1  'x, y, z'
loop_
 _atom_site_type_symbol
 _atom_site_label
 _atom_site_symmetry_multiplicity
 _atom_site_fract_x
 _atom_site_fract_y
 _atom_site_fract_z
 _atom_site_occupancy
  Eu  Eu0  1  0.16508100  0.37650000  0.29333800  1.0
  Eu  Eu1  1  0.83491900  0.62350000  0.70666200  1.0
  In  In2  1  0.43826400  0.22734300  0.89612900  1.0
  In  In3  1  0.15355300  0.03939100  0.65350300  1.0
  In  In4  1  0.57713500  0.27013600  0.57559400  1.0
  In  In5  1  0.56173600  0.77265700  0.10387100  1.0
  In  In6  1  0.84644700  0.96060900  0.34649700  1.0
  In  In7  1  0.15494600  0.74185600  0.94825200  1.0
  In  In8  1  0.84505400  0.25814400  0.05174800  1.0
  In  In9  1  0.42286500  0.72986400  0.42440600  1.0
