# generated using pymatgen
data_EuIn4Cu
_symmetry_space_group_name_H-M   'P 1'
_cell_length_a   4.59866600
_cell_length_b   7.42451500
_cell_length_c   8.81476342
_cell_angle_alpha   90.00000000
_cell_angle_beta   105.12051731
_cell_angle_gamma   90.00000000
_symmetry_Int_Tables_number   1
_chemical_formula_structural   EuIn4Cu
_chemical_formula_sum   'Eu2 In8 Cu2'
_cell_volume   290.54177978
_cell_formula_units_Z   2
loop_
 _symmetry_equiv_pos_site_id
 _symmetry_equiv_pos_as_xyz
  1  'x, y, z'
loop_
 _atom_site_type_symbol
 _atom_site_label
 _atom_site_symmetry_multiplicity
 _atom_site_fract_x
 _atom_site_fract_y
 _atom_site_fract_z
 _atom_site_occupancy
  Eu  Eu0  1  0.87887300  0.75000000  0.75774600  1.0
  Eu  Eu1  1  0.12112700  0.25000000  0.24225400  1.0
  In  In2  1  0.50000000  0.00000000  1.00000000  1.0
  In  In3  1  0.50000000  0.50000000  1.00000000  1.0
  In  In4  1  0.07266500  0.75000000  0.14533000  1.0
  In  In5  1  0.92733500  0.25000000  0.85467000  1.0
  In  In6  1  0.68542500  0.94984700  0.37085000  1.0
  In  In7  1  0.31457500  0.05015300  0.62915000  1.0
  In  In8  1  0.68542500  0.55015300  0.37085000  1.0
  In  In9  1  0.31457500  0.44984700  0.62915000  1.0
  Cu  Cu10  1  0.22988300  0.75000000  0.45976600  1.0
  Cu  Cu11  1  0.77011700  0.25000000  0.54023400  1.0
