# generated using pymatgen
data_EuMgH4
_symmetry_space_group_name_H-M   'P 1'
_cell_length_a   3.87925200
_cell_length_b   5.56823000
_cell_length_c   6.84709905
_cell_angle_alpha   90.00000000
_cell_angle_beta   106.45588688
_cell_angle_gamma   90.00000000
_symmetry_Int_Tables_number   1
_chemical_formula_structural   EuMgH4
_chemical_formula_sum   'Eu2 Mg2 H8'
_cell_volume   141.84291194
_cell_formula_units_Z   2
loop_
 _symmetry_equiv_pos_site_id
 _symmetry_equiv_pos_as_xyz
  1  'x, y, z'
loop_
 _atom_site_type_symbol
 _atom_site_label
 _atom_site_symmetry_multiplicity
 _atom_site_fract_x
 _atom_site_fract_y
 _atom_site_fract_z
 _atom_site_occupancy
  Eu  Eu0  1  0.15188500  0.25596500  0.30377000  1.0
  Eu  Eu1  1  0.84811500  0.75596500  0.69623000  1.0
  Mg  Mg2  1  0.41430900  0.30425600  0.82861800  1.0
  Mg  Mg3  1  0.58569100  0.80425600  0.17138200  1.0
  H  H4  1  0.33034900  0.02488800  0.66069800  1.0
  H  H5  1  0.66965100  0.52488800  0.33930200  1.0
  H  H6  1  0.29583100  0.51003300  0.59166200  1.0
  H  H7  1  0.70416900  0.01003300  0.40833800  1.0
  H  H8  1  0.07282600  0.84734900  0.14565200  1.0
  H  H9  1  0.92717400  0.34734900  0.85434800  1.0
  H  H10  1  0.54406500  0.15650900  0.08813000  1.0
  H  H11  1  0.45593500  0.65650900  0.91187000  1.0
