# generated using pymatgen
data_EuNbO4
_symmetry_space_group_name_H-M   'P 1'
_cell_length_a   5.21508024
_cell_length_b   5.49363899
_cell_length_c   6.72702405
_cell_angle_alpha   112.35064990
_cell_angle_beta   110.98178067
_cell_angle_gamma   94.15012631
_symmetry_Int_Tables_number   1
_chemical_formula_structural   EuNbO4
_chemical_formula_sum   'Eu2 Nb2 O8'
_cell_volume   161.50428896
_cell_formula_units_Z   2
loop_
 _symmetry_equiv_pos_site_id
 _symmetry_equiv_pos_as_xyz
  1  'x, y, z'
loop_
 _atom_site_type_symbol
 _atom_site_label
 _atom_site_symmetry_multiplicity
 _atom_site_fract_x
 _atom_site_fract_y
 _atom_site_fract_z
 _atom_site_occupancy
  Eu  Eu0  1  0.12211200  0.87211200  0.74422400  1.0
  Eu  Eu1  1  0.87788800  0.12788800  0.25577600  1.0
  Nb  Nb2  1  0.64321300  0.39321300  0.78642600  1.0
  Nb  Nb3  1  0.35678700  0.60678700  0.21357400  1.0
  O  O4  1  0.70231700  0.86515000  0.41901000  1.0
  O  O5  1  0.21669300  0.55386000  0.41901000  1.0
  O  O6  1  0.29768300  0.13485000  0.58099000  1.0
  O  O7  1  0.78330700  0.44614000  0.58099000  1.0
  O  O8  1  0.48337700  0.28955200  0.06206100  1.0
  O  O9  1  0.07868400  0.77250900  0.06206100  1.0
  O  O10  1  0.51662300  0.71044800  0.93793900  1.0
  O  O11  1  0.92131600  0.22749100  0.93793900  1.0
