# generated using pymatgen
data_EuPPt
_symmetry_space_group_name_H-M   'P 1'
_cell_length_a   4.13473685
_cell_length_b   4.13932669
_cell_length_c   8.58413607
_cell_angle_alpha   89.93342765
_cell_angle_beta   89.97221777
_cell_angle_gamma   119.94980155
_symmetry_Int_Tables_number   1
_chemical_formula_structural   EuPPt
_chemical_formula_sum   'Eu2 P2 Pt2'
_cell_volume   127.29860380
_cell_formula_units_Z   2
loop_
 _symmetry_equiv_pos_site_id
 _symmetry_equiv_pos_as_xyz
  1  'x, y, z'
loop_
 _atom_site_type_symbol
 _atom_site_label
 _atom_site_symmetry_multiplicity
 _atom_site_fract_x
 _atom_site_fract_y
 _atom_site_fract_z
 _atom_site_occupancy
  Eu  Eu0  1  0.00000000  0.00000000  0.00000100  1.0
  Eu  Eu1  1  0.00000000  0.00000000  0.49999900  1.0
  P  P2  1  0.66658600  0.33325267  0.25004500  1.0
  P  P3  1  0.33341400  0.66674733  0.74995500  1.0
  Pt  Pt4  1  0.33333333  0.66666667  0.25006800  1.0
  Pt  Pt5  1  0.66660900  0.33327567  0.74993200  1.0
