# generated using pymatgen
data_EuSi3Rh
_symmetry_space_group_name_H-M   'P 1'
_cell_length_a   4.22168800
_cell_length_b   4.22168800
_cell_length_c   5.80611298
_cell_angle_alpha   111.31870946
_cell_angle_beta   111.31870946
_cell_angle_gamma   90.00000001
_symmetry_Int_Tables_number   1
_chemical_formula_structural   EuSi3Rh
_chemical_formula_sum   'Eu1 Si3 Rh1'
_cell_volume   88.75540480
_cell_formula_units_Z   1
loop_
 _symmetry_equiv_pos_site_id
 _symmetry_equiv_pos_as_xyz
  1  'x, y, z'
loop_
 _atom_site_type_symbol
 _atom_site_label
 _atom_site_symmetry_multiplicity
 _atom_site_fract_x
 _atom_site_fract_y
 _atom_site_fract_z
 _atom_site_occupancy
  Eu  Eu0  1  0.00078800  0.00078800  0.00157600  1.0
  Si  Si1  1  0.41458500  0.41458500  0.82917000  1.0
  Si  Si2  1  0.26397800  0.76397800  0.52795600  1.0
  Si  Si3  1  0.76397800  0.26397800  0.52795600  1.0
  Rh  Rh4  1  0.65467200  0.65467200  0.30934400  1.0
