# generated using pymatgen
data_Fe(HO)2
_symmetry_space_group_name_H-M   'P 1'
_cell_length_a   3.30711272
_cell_length_b   3.30854967
_cell_length_c   4.63725026
_cell_angle_alpha   90.45374118
_cell_angle_beta   90.41193484
_cell_angle_gamma   60.30139854
_symmetry_Int_Tables_number   1
_chemical_formula_structural   Fe(HO)2
_chemical_formula_sum   'Fe1 H2 O2'
_cell_volume   44.07295100
_cell_formula_units_Z   1
loop_
 _symmetry_equiv_pos_site_id
 _symmetry_equiv_pos_as_xyz
  1  'x, y, z'
loop_
 _atom_site_type_symbol
 _atom_site_label
 _atom_site_symmetry_multiplicity
 _atom_site_fract_x
 _atom_site_fract_y
 _atom_site_fract_z
 _atom_site_occupancy
  Fe  Fe0  1  0.00001425  0.00007075  0.99999250  1.0
  H  H4  1  0.33191275  0.33206125  0.43228550  1.0
  H  H8  1  0.66807550  0.66789400  0.56771825  1.0
  O  O12  1  0.33299450  0.33299850  0.22234800  1.0
  O  O16  1  0.66700225  0.66697575  0.77765600  1.0
