# generated using pymatgen
data_Fe(NiO2)2
_symmetry_space_group_name_H-M   'P 1'
_cell_length_a   5.91418543
_cell_length_b   5.91499792
_cell_length_c   5.91598213
_cell_angle_alpha   60.01420954
_cell_angle_beta   60.00870289
_cell_angle_gamma   60.00249365
_symmetry_Int_Tables_number   1
_chemical_formula_structural   Fe(NiO2)2
_chemical_formula_sum   'Fe2 Ni4 O8'
_cell_volume   146.36753359
_cell_formula_units_Z   2
loop_
 _symmetry_equiv_pos_site_id
 _symmetry_equiv_pos_as_xyz
  1  'x, y, z'
loop_
 _atom_site_type_symbol
 _atom_site_label
 _atom_site_symmetry_multiplicity
 _atom_site_fract_x
 _atom_site_fract_y
 _atom_site_fract_z
 _atom_site_occupancy
  Fe  Fe0  1  0.87521900  0.87472900  0.87482700  1.0
  Fe  Fe1  1  0.12477600  0.12527500  0.12517100  1.0
  Ni  Ni2  1  0.50000000  0.49999900  0.99999900  1.0
  Ni  Ni3  1  0.50000300  0.00000100  0.50000200  1.0
  Ni  Ni4  1  0.00000000  0.49999900  0.50000100  1.0
  Ni  Ni5  1  0.50000200  0.49999700  0.49999600  1.0
  O  O6  1  0.25756800  0.72694400  0.25791700  1.0
  O  O7  1  0.27242400  0.74240400  0.74241500  1.0
  O  O8  1  0.74243200  0.27305700  0.74208300  1.0
  O  O9  1  0.74275600  0.74240600  0.74242300  1.0
  O  O10  1  0.74244500  0.74209300  0.27301100  1.0
  O  O11  1  0.72757600  0.25759500  0.25758600  1.0
  O  O12  1  0.25755500  0.25790700  0.72699000  1.0
  O  O13  1  0.25724400  0.25759400  0.25757800  1.0
