# generated using pymatgen
data_Fe(NiO2)2
_symmetry_space_group_name_H-M   'P 1'
_cell_length_a   5.87566996
_cell_length_b   5.92565892
_cell_length_c   5.92570271
_cell_angle_alpha   90.42413926
_cell_angle_beta   119.72142341
_cell_angle_gamma   119.72157134
_symmetry_Int_Tables_number   1
_chemical_formula_structural   Fe(NiO2)2
_chemical_formula_sum   'Fe2 Ni4 O8'
_cell_volume   146.57205442
_cell_formula_units_Z   2
loop_
 _symmetry_equiv_pos_site_id
 _symmetry_equiv_pos_as_xyz
  1  'x, y, z'
loop_
 _atom_site_type_symbol
 _atom_site_label
 _atom_site_symmetry_multiplicity
 _atom_site_fract_x
 _atom_site_fract_y
 _atom_site_fract_z
 _atom_site_occupancy
  Fe  Fe0  1  0.25000200  0.12046400  0.87953900  1.0
  Fe  Fe1  1  0.74999700  0.87953500  0.12046000  1.0
  Ni  Ni2  1  0.50000000  0.50000000  0.50000000  1.0
  Ni  Ni3  1  0.00000000  0.50000000  0.50000000  1.0
  Ni  Ni4  1  1.00000000  0.50000000  1.00000000  1.0
  Ni  Ni5  1  0.50000000  0.00000000  0.50000000  1.0
  O  O6  1  0.01180300  0.26952500  0.25407500  1.0
  O  O7  1  0.98444500  0.25389600  0.74610400  1.0
  O  O8  1  0.98819600  0.73047500  0.74592500  1.0
  O  O9  1  0.51556000  0.25389500  0.74610700  1.0
  O  O10  1  0.51180000  0.25406300  0.26953100  1.0
  O  O11  1  0.01555500  0.74610400  0.25389600  1.0
  O  O12  1  0.48820200  0.74593800  0.73047000  1.0
  O  O13  1  0.48444100  0.74610600  0.25389400  1.0
