# generated using pymatgen
data_Fe3(OF)2
_symmetry_space_group_name_H-M   'P 1'
_cell_length_a   5.67795204
_cell_length_b   5.85584807
_cell_length_c   5.94136093
_cell_angle_alpha   89.99995257
_cell_angle_beta   63.51393245
_cell_angle_gamma   89.98451001
_symmetry_Int_Tables_number   1
_chemical_formula_structural   Fe3(OF)2
_chemical_formula_sum   'Fe6 O4 F4'
_cell_volume   176.81180479
_cell_formula_units_Z   2
loop_
 _symmetry_equiv_pos_site_id
 _symmetry_equiv_pos_as_xyz
  1  'x, y, z'
loop_
 _atom_site_type_symbol
 _atom_site_label
 _atom_site_symmetry_multiplicity
 _atom_site_fract_x
 _atom_site_fract_y
 _atom_site_fract_z
 _atom_site_occupancy
  Fe  Fe0  1  0.00002500  0.99998700  0.99995100  1.0
  Fe  Fe1  1  0.72059100  0.05908800  0.64733800  1.0
  Fe  Fe2  1  0.27940300  0.94092800  0.35265800  1.0
  Fe  Fe3  1  0.49997600  0.50002500  0.00008200  1.0
  Fe  Fe4  1  0.77930300  0.55904000  0.35283300  1.0
  Fe  Fe5  1  0.22069700  0.44095600  0.64716200  1.0
  O  O6  1  0.57035400  0.36914600  0.66794900  1.0
  O  O7  1  0.92960500  0.86914300  0.33207800  1.0
  O  O8  1  0.07039600  0.13085100  0.66791700  1.0
  O  O9  1  0.42964700  0.63084800  0.33204300  1.0
  F  F10  1  0.91364600  0.65682100  0.85675700  1.0
  F  F11  1  0.41364100  0.84316100  0.85682000  1.0
  F  F12  1  0.58636000  0.15683300  0.14317400  1.0
  F  F13  1  0.08635400  0.34317400  0.14323800  1.0
