# generated using pymatgen
data_FeCu6GeS8
_symmetry_space_group_name_H-M   'P 1'
_cell_length_a   7.41270504
_cell_length_b   7.41270504
_cell_length_c   7.41270504
_cell_angle_alpha   60.00000000
_cell_angle_beta   60.00000000
_cell_angle_gamma   60.00000000
_symmetry_Int_Tables_number   1
_chemical_formula_structural   FeCu6GeS8
_chemical_formula_sum   'Fe1 Cu6 Ge1 S8'
_cell_volume   288.01503559
_cell_formula_units_Z   1
loop_
 _symmetry_equiv_pos_site_id
 _symmetry_equiv_pos_as_xyz
  1  'x, y, z'
loop_
 _atom_site_type_symbol
 _atom_site_label
 _atom_site_symmetry_multiplicity
 _atom_site_fract_x
 _atom_site_fract_y
 _atom_site_fract_z
 _atom_site_occupancy
  Fe  Fe0  1  0.00000000  0.00000000  0.00000000  1.0
  Cu  Cu1  1  0.00489300  0.00489300  0.49510700  1.0
  Cu  Cu2  1  0.49510700  0.49510700  0.00489300  1.0
  Cu  Cu3  1  0.00489300  0.49510700  0.00489300  1.0
  Cu  Cu4  1  0.49510700  0.00489300  0.49510700  1.0
  Cu  Cu5  1  0.49510700  0.00489300  0.00489300  1.0
  Cu  Cu6  1  0.00489300  0.49510700  0.49510700  1.0
  Ge  Ge7  1  0.50000000  0.50000000  0.50000000  1.0
  S  S8  1  0.12135100  0.63594900  0.12135000  1.0
  S  S9  1  0.62484300  0.12547100  0.62484300  1.0
  S  S10  1  0.63595000  0.12135000  0.12135000  1.0
  S  S11  1  0.12547100  0.62484300  0.62484300  1.0
  S  S12  1  0.12135100  0.12135000  0.63594900  1.0
  S  S13  1  0.62484300  0.62484300  0.12547100  1.0
  S  S14  1  0.12135100  0.12135000  0.12135000  1.0
  S  S15  1  0.62484300  0.62484300  0.62484300  1.0
