# generated using pymatgen
data_FeHO2
_symmetry_space_group_name_H-M   'P 1'
_cell_length_a   3.05611900
_cell_length_b   4.64196100
_cell_length_c   10.05552300
_cell_angle_alpha   90.00135122
_cell_angle_beta   89.99999431
_cell_angle_gamma   89.99931693
_symmetry_Int_Tables_number   1
_chemical_formula_structural   FeHO2
_chemical_formula_sum   'Fe4 H4 O8'
_cell_volume   142.65152271
_cell_formula_units_Z   4
loop_
 _symmetry_equiv_pos_site_id
 _symmetry_equiv_pos_as_xyz
  1  'x, y, z'
loop_
 _atom_site_type_symbol
 _atom_site_label
 _atom_site_symmetry_multiplicity
 _atom_site_fract_x
 _atom_site_fract_y
 _atom_site_fract_z
 _atom_site_occupancy
  Fe  Fe0  1  0.24879200  0.44302200  0.64465100  1.0
  Fe  Fe1  1  0.25118700  0.05697100  0.14464600  1.0
  Fe  Fe2  1  0.74882900  0.55697200  0.35534800  1.0
  Fe  Fe3  1  0.75115400  0.94303600  0.85534900  1.0
  H  H4  1  0.74710100  0.89621500  0.59094100  1.0
  H  H5  1  0.75291200  0.60377800  0.09094000  1.0
  H  H6  1  0.24710000  0.10376800  0.40905700  1.0
  H  H7  1  0.25291500  0.39624400  0.90905900  1.0
  O  O8  1  0.74935400  0.19026900  0.69571100  1.0
  O  O9  1  0.75063900  0.30973100  0.19571100  1.0
  O  O10  1  0.24938200  0.80972700  0.30429400  1.0
  O  O11  1  0.25062200  0.69026900  0.80429200  1.0
  O  O12  1  0.74695500  0.69327900  0.55670400  1.0
  O  O13  1  0.75304900  0.80671200  0.05670100  1.0
  O  O14  1  0.24695900  0.30670100  0.44329900  1.0
  O  O15  1  0.25305100  0.19330600  0.94329700  1.0
