# generated using pymatgen
data_FeNiTe4
_symmetry_space_group_name_H-M   'P 1'
_cell_length_a   6.31330400
_cell_length_b   6.35102200
_cell_length_c   6.33559160
_cell_angle_alpha   90.00000000
_cell_angle_beta   89.63352867
_cell_angle_gamma   90.00000000
_symmetry_Int_Tables_number   1
_chemical_formula_structural   FeNiTe4
_chemical_formula_sum   'Fe2 Ni2 Te8'
_cell_volume   254.02625750
_cell_formula_units_Z   2
loop_
 _symmetry_equiv_pos_site_id
 _symmetry_equiv_pos_as_xyz
  1  'x, y, z'
loop_
 _atom_site_type_symbol
 _atom_site_label
 _atom_site_symmetry_multiplicity
 _atom_site_fract_x
 _atom_site_fract_y
 _atom_site_fract_z
 _atom_site_occupancy
  Fe  Fe0  1  0.50000000  1.00000000  0.50000000  1.0
  Fe  Fe1  1  0.50000000  0.50000000  1.00000000  1.0
  Ni  Ni2  1  0.00000000  0.00000000  0.00000000  1.0
  Ni  Ni3  1  0.00000000  0.50000000  0.50000000  1.0
  Te  Te4  1  0.14108300  0.36943400  0.12865800  1.0
  Te  Te5  1  0.85891700  0.86943400  0.37134200  1.0
  Te  Te6  1  0.37377000  0.63734400  0.63861100  1.0
  Te  Te7  1  0.62623000  0.13734400  0.86138900  1.0
  Te  Te8  1  0.85891700  0.63056600  0.87134200  1.0
  Te  Te9  1  0.14108300  0.13056600  0.62865800  1.0
  Te  Te10  1  0.62623000  0.36265600  0.36138900  1.0
  Te  Te11  1  0.37377000  0.86265600  0.13861100  1.0
