# generated using pymatgen
data_Ga2Hg5Se8
_symmetry_space_group_name_H-M   'P 1'
_cell_length_a   8.46967755
_cell_length_b   8.46967755
_cell_length_c   8.46967755
_cell_angle_alpha   88.33393548
_cell_angle_beta   60.95719564
_cell_angle_gamma   119.04280436
_symmetry_Int_Tables_number   1
_chemical_formula_structural   Ga2Hg5Se8
_chemical_formula_sum   'Ga2 Hg5 Se8'
_cell_volume   435.63758865
_cell_formula_units_Z   1
loop_
 _symmetry_equiv_pos_site_id
 _symmetry_equiv_pos_as_xyz
  1  'x, y, z'
loop_
 _atom_site_type_symbol
 _atom_site_label
 _atom_site_symmetry_multiplicity
 _atom_site_fract_x
 _atom_site_fract_y
 _atom_site_fract_z
 _atom_site_occupancy
  Ga  Ga0  1  1.00000000  0.76250000  0.23750000  1.0
  Ga  Ga1  1  1.00000000  0.23750000  0.76250000  1.0
  Hg  Hg2  1  0.50000000  0.75000000  0.75000000  1.0
  Hg  Hg3  1  0.00000000  0.76502000  0.76502000  1.0
  Hg  Hg4  1  1.00000000  0.23498000  0.23498000  1.0
  Hg  Hg5  1  0.53003900  0.76501900  0.23498100  1.0
  Hg  Hg6  1  0.46996100  0.23498100  0.76501900  1.0
  Se  Se7  1  0.74494300  0.59789000  0.14705200  1.0
  Se  Se8  1  0.25505700  0.10800400  0.14705300  1.0
  Se  Se9  1  0.74494300  0.14705300  0.10800400  1.0
  Se  Se10  1  0.25505700  0.14705200  0.59789000  1.0
  Se  Se11  1  0.76957900  0.13819000  0.63139000  1.0
  Se  Se12  1  0.23042100  0.59903200  0.63138900  1.0
  Se  Se13  1  0.76957900  0.63138900  0.59903100  1.0
  Se  Se14  1  0.23042100  0.63139000  0.13818900  1.0
