# generated using pymatgen
data_Ga2HgTe4
_symmetry_space_group_name_H-M   'P 1'
_cell_length_a   6.26607800
_cell_length_b   6.26607800
_cell_length_c   7.47100431
_cell_angle_alpha   114.79417667
_cell_angle_beta   114.79417667
_cell_angle_gamma   89.99999999
_symmetry_Int_Tables_number   1
_chemical_formula_structural   Ga2HgTe4
_chemical_formula_sum   'Ga2 Hg1 Te4'
_cell_volume   236.18380382
_cell_formula_units_Z   1
loop_
 _symmetry_equiv_pos_site_id
 _symmetry_equiv_pos_as_xyz
  1  'x, y, z'
loop_
 _atom_site_type_symbol
 _atom_site_label
 _atom_site_symmetry_multiplicity
 _atom_site_fract_x
 _atom_site_fract_y
 _atom_site_fract_z
 _atom_site_occupancy
  Ga  Ga0  1  0.50000000  0.50000000  0.00000000  1.0
  Ga  Ga1  1  0.25000000  0.75000000  0.50000000  1.0
  Hg  Hg2  1  0.00000000  0.00000000  0.00000000  1.0
  Te  Te3  1  0.60852500  0.58489800  0.72243800  1.0
  Te  Te4  1  0.86246000  0.39147400  0.27756100  1.0
  Te  Te5  1  0.41510200  0.88608800  0.27756300  1.0
  Te  Te6  1  0.11391300  0.13754000  0.72243800  1.0
