# generated using pymatgen
data_Ga4SiO8
_symmetry_space_group_name_H-M   'P 1'
_cell_length_a   2.98249200
_cell_length_b   6.40088779
_cell_length_c   7.77539357
_cell_angle_alpha   82.54571645
_cell_angle_beta   78.94271047
_cell_angle_gamma   76.52772171
_symmetry_Int_Tables_number   1
_chemical_formula_structural   Ga4SiO8
_chemical_formula_sum   'Ga4 Si1 O8'
_cell_volume   141.10890762
_cell_formula_units_Z   1
loop_
 _symmetry_equiv_pos_site_id
 _symmetry_equiv_pos_as_xyz
  1  'x, y, z'
loop_
 _atom_site_type_symbol
 _atom_site_label
 _atom_site_symmetry_multiplicity
 _atom_site_fract_x
 _atom_site_fract_y
 _atom_site_fract_z
 _atom_site_occupancy
  Ga  Ga0  1  0.75517600  0.84535100  0.64429700  1.0
  Ga  Ga1  1  0.46128200  0.35575100  0.72168500  1.0
  Ga  Ga2  1  0.53871800  0.64424900  0.27831500  1.0
  Ga  Ga3  1  0.24482400  0.15464900  0.35570300  1.0
  Si  Si4  1  0.00000000  0.00000000  0.00000000  1.0
  O  O5  1  0.88550100  0.52772100  0.70127700  1.0
  O  O6  1  0.84813700  0.09785200  0.20587400  1.0
  O  O7  1  0.64620800  0.17064200  0.53694200  1.0
  O  O8  1  0.44491900  0.17859600  0.93156600  1.0
  O  O9  1  0.55508100  0.82140400  0.06843400  1.0
  O  O10  1  0.35379200  0.82935800  0.46305800  1.0
  O  O11  1  0.15186300  0.90214800  0.79412600  1.0
  O  O12  1  0.11449900  0.47227900  0.29872300  1.0
