# generated using pymatgen
data_GaAg2
_symmetry_space_group_name_H-M   'P 1'
_cell_length_a   2.92902000
_cell_length_b   7.88249800
_cell_length_c   7.88249842
_cell_angle_alpha   119.99999823
_cell_angle_beta   90.00000000
_cell_angle_gamma   90.00000000
_symmetry_Int_Tables_number   1
_chemical_formula_structural   GaAg2
_chemical_formula_sum   'Ga3 Ag6'
_cell_volume   157.60890004
_cell_formula_units_Z   3
loop_
 _symmetry_equiv_pos_site_id
 _symmetry_equiv_pos_as_xyz
  1  'x, y, z'
loop_
 _atom_site_type_symbol
 _atom_site_label
 _atom_site_symmetry_multiplicity
 _atom_site_fract_x
 _atom_site_fract_y
 _atom_site_fract_z
 _atom_site_occupancy
  Ga  Ga0  1  1.00000000  0.33333333  0.66666667  1.0
  Ga  Ga1  1  1.00000000  0.66666667  0.33333333  1.0
  Ga  Ga2  1  0.50000000  0.00000000  0.00000000  1.0
  Ag  Ag3  1  1.00000000  0.69446800  0.69446800  1.0
  Ag  Ag4  1  1.00000000  0.30553200  1.00000000  1.0
  Ag  Ag5  1  1.00000000  0.00000000  0.30553200  1.0
  Ag  Ag6  1  0.50000000  0.00000000  0.63895100  1.0
  Ag  Ag7  1  0.50000000  0.63895100  1.00000000  1.0
  Ag  Ag8  1  0.50000000  0.36104900  0.36104900  1.0
