# generated using pymatgen
data_GaAgSeS
_symmetry_space_group_name_H-M   'P 1'
_cell_length_a   5.87025800
_cell_length_b   5.97638000
_cell_length_c   6.88539082
_cell_angle_alpha   115.72103635
_cell_angle_beta   115.23193646
_cell_angle_gamma   90.00000001
_symmetry_Int_Tables_number   1
_chemical_formula_structural   GaAgSeS
_chemical_formula_sum   'Ga2 Ag2 Se2 S2'
_cell_volume   191.72197301
_cell_formula_units_Z   2
loop_
 _symmetry_equiv_pos_site_id
 _symmetry_equiv_pos_as_xyz
  1  'x, y, z'
loop_
 _atom_site_type_symbol
 _atom_site_label
 _atom_site_symmetry_multiplicity
 _atom_site_fract_x
 _atom_site_fract_y
 _atom_site_fract_z
 _atom_site_occupancy
  Ga  Ga0  1  0.61848700  0.86848700  0.23697400  1.0
  Ga  Ga1  1  0.88151300  0.63151300  0.76302600  1.0
  Ag  Ag2  1  0.11613400  0.36613400  0.23226800  1.0
  Ag  Ag3  1  0.38386600  0.13386600  0.76773200  1.0
  Se  Se4  1  0.53015500  0.75000000  0.50000000  1.0
  Se  Se5  1  0.96984500  0.25000000  0.50000000  1.0
  S  S6  1  0.75000000  0.54001200  0.00000000  1.0
  S  S7  1  0.25000000  0.95998800  1.00000000  1.0
