# generated using pymatgen
data_GaAu2
_symmetry_space_group_name_H-M   'P 1'
_cell_length_a   3.38993600
_cell_length_b   6.99468800
_cell_length_c   9.21159892
_cell_angle_alpha   90.00000000
_cell_angle_beta   100.60304968
_cell_angle_gamma   90.00000000
_symmetry_Int_Tables_number   1
_chemical_formula_structural   GaAu2
_chemical_formula_sum   'Ga4 Au8'
_cell_volume   214.69181803
_cell_formula_units_Z   4
loop_
 _symmetry_equiv_pos_site_id
 _symmetry_equiv_pos_as_xyz
  1  'x, y, z'
loop_
 _atom_site_type_symbol
 _atom_site_label
 _atom_site_symmetry_multiplicity
 _atom_site_fract_x
 _atom_site_fract_y
 _atom_site_fract_z
 _atom_site_occupancy
  Ga  Ga0  1  0.70920800  0.72755700  0.41841600  1.0
  Ga  Ga1  1  0.29079200  0.22755700  0.58158400  1.0
  Ga  Ga2  1  0.94065100  0.69349600  0.88130200  1.0
  Ga  Ga3  1  0.05934900  0.19349600  0.11869800  1.0
  Au  Au4  1  0.08632200  0.82094000  0.17264400  1.0
  Au  Au5  1  0.91367800  0.32094000  0.82735600  1.0
  Au  Au6  1  0.16958000  0.45072700  0.33916000  1.0
  Au  Au7  1  0.83042000  0.95072700  0.66084000  1.0
  Au  Au8  1  0.67731900  0.09673700  0.35463800  1.0
  Au  Au9  1  0.32268100  0.59673700  0.64536200  1.0
  Au  Au10  1  0.53528400  0.49854300  0.07056800  1.0
  Au  Au11  1  0.46471600  0.99854300  0.92943200  1.0
