# generated using pymatgen
data_GaCuGeSe4
_symmetry_space_group_name_H-M   'P 1'
_cell_length_a   5.58270000
_cell_length_b   5.58270000
_cell_length_c   6.74487834
_cell_angle_alpha   114.44674934
_cell_angle_beta   114.44674933
_cell_angle_gamma   90.00000000
_symmetry_Int_Tables_number   1
_chemical_formula_structural   GaCuGeSe4
_chemical_formula_sum   'Ga1 Cu1 Ge1 Se4'
_cell_volume   170.45023996
_cell_formula_units_Z   1
loop_
 _symmetry_equiv_pos_site_id
 _symmetry_equiv_pos_as_xyz
  1  'x, y, z'
loop_
 _atom_site_type_symbol
 _atom_site_label
 _atom_site_symmetry_multiplicity
 _atom_site_fract_x
 _atom_site_fract_y
 _atom_site_fract_z
 _atom_site_occupancy
  Ga  Ga0  1  0.50000000  0.50000000  0.00000000  1.0
  Cu  Cu1  1  0.25000000  0.75000000  0.50000000  1.0
  Ge  Ge2  1  0.75000000  0.25000000  0.50000000  1.0
  Se  Se3  1  0.11513200  0.64227700  0.76043500  1.0
  Se  Se4  1  0.64530300  0.11815800  0.76043500  1.0
  Se  Se5  1  0.35772300  0.35469700  0.23956500  1.0
  Se  Se6  1  0.88184200  0.88486800  0.23956500  1.0
