# generated using pymatgen
data_Gd(CuO2)2
_symmetry_space_group_name_H-M   'P 1'
_cell_length_a   5.74385200
_cell_length_b   6.32395676
_cell_length_c   5.74385200
_cell_angle_alpha   117.00925069
_cell_angle_beta   89.99999999
_cell_angle_gamma   117.00925070
_symmetry_Int_Tables_number   1
_chemical_formula_structural   Gd(CuO2)2
_chemical_formula_sum   'Gd2 Cu4 O8'
_cell_volume   159.92198562
_cell_formula_units_Z   2
loop_
 _symmetry_equiv_pos_site_id
 _symmetry_equiv_pos_as_xyz
  1  'x, y, z'
loop_
 _atom_site_type_symbol
 _atom_site_label
 _atom_site_symmetry_multiplicity
 _atom_site_fract_x
 _atom_site_fract_y
 _atom_site_fract_z
 _atom_site_occupancy
  Gd  Gd0  1  0.00000000  0.00000000  0.00000000  1.0
  Gd  Gd1  1  0.25000000  0.50000000  0.75000000  1.0
  Cu  Cu2  1  0.62500000  0.25000000  0.87500000  1.0
  Cu  Cu3  1  0.62500000  0.25000000  0.37500000  1.0
  Cu  Cu4  1  0.62500000  0.75000000  0.37500000  1.0
  Cu  Cu5  1  0.12500000  0.75000000  0.37500000  1.0
  O  O6  1  0.26327000  0.10299900  0.40442200  1.0
  O  O7  1  0.83972900  0.10299900  0.69857700  1.0
  O  O8  1  0.98673000  0.39700100  0.34557800  1.0
  O  O9  1  0.41027100  0.39700100  0.05142300  1.0
  O  O10  1  0.94857700  0.60299900  0.01327000  1.0
  O  O11  1  0.65442200  0.60299900  0.58972900  1.0
  O  O12  1  0.59557800  0.89700100  0.16027100  1.0
  O  O13  1  0.30142300  0.89700100  0.73673000  1.0
