# generated using pymatgen
data_Gd2CoSi2
_symmetry_space_group_name_H-M   'P 1'
_cell_length_a   4.14438400
_cell_length_b   5.68536173
_cell_length_c   8.96392390
_cell_angle_alpha   83.01228647
_cell_angle_beta   76.63402444
_cell_angle_gamma   68.62450903
_symmetry_Int_Tables_number   1
_chemical_formula_structural   Gd2CoSi2
_chemical_formula_sum   'Gd4 Co2 Si4'
_cell_volume   191.19147412
_cell_formula_units_Z   2
loop_
 _symmetry_equiv_pos_site_id
 _symmetry_equiv_pos_as_xyz
  1  'x, y, z'
loop_
 _atom_site_type_symbol
 _atom_site_label
 _atom_site_symmetry_multiplicity
 _atom_site_fract_x
 _atom_site_fract_y
 _atom_site_fract_z
 _atom_site_occupancy
  Gd  Gd0  1  0.99807100  0.33055000  0.67330800  1.0
  Gd  Gd1  1  0.00192900  0.66945000  0.32669200  1.0
  Gd  Gd2  1  0.18702900  0.72854300  0.89739900  1.0
  Gd  Gd3  1  0.81297100  0.27145700  0.10260100  1.0
  Co  Co4  1  0.27334100  0.07184800  0.38147000  1.0
  Co  Co5  1  0.72665900  0.92815200  0.61853000  1.0
  Si  Si6  1  0.34551100  0.74361400  0.56536400  1.0
  Si  Si7  1  0.65448900  0.25638600  0.43463600  1.0
  Si  Si8  1  0.50015800  0.12749300  0.87219100  1.0
  Si  Si9  1  0.49984200  0.87250700  0.12780900  1.0
