# generated using pymatgen
data_Gd2MnCoO6
_symmetry_space_group_name_H-M   'P 1'
_cell_length_a   5.32564500
_cell_length_b   5.68133300
_cell_length_c   7.51184709
_cell_angle_alpha   90.00000000
_cell_angle_beta   89.68421686
_cell_angle_gamma   90.00000000
_symmetry_Int_Tables_number   1
_chemical_formula_structural   Gd2MnCoO6
_chemical_formula_sum   'Gd4 Mn2 Co2 O12'
_cell_volume   227.28072266
_cell_formula_units_Z   2
loop_
 _symmetry_equiv_pos_site_id
 _symmetry_equiv_pos_as_xyz
  1  'x, y, z'
loop_
 _atom_site_type_symbol
 _atom_site_label
 _atom_site_symmetry_multiplicity
 _atom_site_fract_x
 _atom_site_fract_y
 _atom_site_fract_z
 _atom_site_occupancy
  Gd  Gd0  1  0.51818400  0.42863900  0.25012200  1.0
  Gd  Gd1  1  0.98181600  0.92863900  0.24987800  1.0
  Gd  Gd2  1  0.48181600  0.57136100  0.74987800  1.0
  Gd  Gd3  1  0.01818400  0.07136100  0.75012200  1.0
  Mn  Mn4  1  0.00000000  0.50000000  0.50000000  1.0
  Mn  Mn5  1  0.50000000  0.00000000  0.00000000  1.0
  Co  Co6  1  1.00000000  0.50000000  0.00000000  1.0
  Co  Co7  1  0.50000000  0.00000000  0.50000000  1.0
  O  O8  1  0.39870700  0.03134600  0.24717900  1.0
  O  O9  1  0.10129300  0.53134600  0.25282100  1.0
  O  O10  1  0.60129300  0.96865400  0.75282100  1.0
  O  O11  1  0.89870700  0.46865400  0.74717900  1.0
  O  O12  1  0.79254800  0.18261200  0.04944800  1.0
  O  O13  1  0.70745200  0.68261200  0.45055200  1.0
  O  O14  1  0.18507300  0.79098700  0.55327700  1.0
  O  O15  1  0.31492700  0.29098700  0.94672300  1.0
  O  O16  1  0.20745200  0.81738800  0.95055200  1.0
  O  O17  1  0.29254800  0.31738800  0.54944800  1.0
  O  O18  1  0.81492700  0.20901300  0.44672300  1.0
  O  O19  1  0.68507300  0.70901300  0.05327700  1.0
