# generated using pymatgen
data_Gd2Mo2C3
_symmetry_space_group_name_H-M   'P 1'
_cell_length_a   3.37260800
_cell_length_b   5.78490233
_cell_length_c   6.18186073
_cell_angle_alpha   112.34482163
_cell_angle_beta   105.82991468
_cell_angle_gamma   90.00000000
_symmetry_Int_Tables_number   1
_chemical_formula_structural   Gd2Mo2C3
_chemical_formula_sum   'Gd2 Mo2 C3'
_cell_volume   106.59120088
_cell_formula_units_Z   1
loop_
 _symmetry_equiv_pos_site_id
 _symmetry_equiv_pos_as_xyz
  1  'x, y, z'
loop_
 _atom_site_type_symbol
 _atom_site_label
 _atom_site_symmetry_multiplicity
 _atom_site_fract_x
 _atom_site_fract_y
 _atom_site_fract_z
 _atom_site_occupancy
  Gd  Gd0  1  0.60879300  0.82081400  0.21758600  1.0
  Gd  Gd1  1  0.39120700  0.17918600  0.78241400  1.0
  Mo  Mo2  1  0.84179100  0.67540700  0.68358200  1.0
  Mo  Mo3  1  0.15820900  0.32459300  0.31641800  1.0
  C  C4  1  0.00000000  0.00000000  0.00000000  1.0
  C  C5  1  0.75047400  0.26859600  0.50094800  1.0
  C  C6  1  0.24952600  0.73140400  0.49905200  1.0
