# generated using pymatgen
data_Gd2MgSe4
_symmetry_space_group_name_H-M   'P 1'
_cell_length_a   7.56869380
_cell_length_b   7.56869380
_cell_length_c   7.56869380
_cell_angle_alpha   107.11370963
_cell_angle_beta   110.66268187
_cell_angle_gamma   110.66268187
_symmetry_Int_Tables_number   1
_chemical_formula_structural   Gd2MgSe4
_chemical_formula_sum   'Gd4 Mg2 Se8'
_cell_volume   333.34347340
_cell_formula_units_Z   2
loop_
 _symmetry_equiv_pos_site_id
 _symmetry_equiv_pos_as_xyz
  1  'x, y, z'
loop_
 _atom_site_type_symbol
 _atom_site_label
 _atom_site_symmetry_multiplicity
 _atom_site_fract_x
 _atom_site_fract_y
 _atom_site_fract_z
 _atom_site_occupancy
  Gd  Gd0  1  0.61787000  0.37500000  0.49287000  1.0
  Gd  Gd1  1  0.11787000  0.24287000  0.62500000  1.0
  Gd  Gd2  1  0.38213000  0.87500000  0.75713000  1.0
  Gd  Gd3  1  0.88213000  0.50713000  0.12500000  1.0
  Mg  Mg4  1  0.00000000  0.00000000  0.00000000  1.0
  Mg  Mg5  1  0.50000000  0.75000000  0.25000000  1.0
  Se  Se6  1  0.73672300  0.11469500  0.24347000  1.0
  Se  Se7  1  0.12877500  0.62202800  0.88530400  1.0
  Se  Se8  1  0.26327700  0.50674700  0.37797200  1.0
  Se  Se9  1  0.87122500  0.75653000  0.49325300  1.0
  Se  Se10  1  0.62877500  0.63530400  0.87202800  1.0
  Se  Se11  1  0.76327700  0.12797200  0.75674700  1.0
  Se  Se12  1  0.37122500  0.24325300  0.00653000  1.0
  Se  Se13  1  0.23672300  0.99347000  0.36469500  1.0
