# generated using pymatgen
data_GdCo4Si
_symmetry_space_group_name_H-M   'P 1'
_cell_length_a   3.71209400
_cell_length_b   5.07446662
_cell_length_c   5.07567817
_cell_angle_alpha   119.96798649
_cell_angle_beta   90.00000000
_cell_angle_gamma   90.00000000
_symmetry_Int_Tables_number   1
_chemical_formula_structural   GdCo4Si
_chemical_formula_sum   'Gd1 Co4 Si1'
_cell_volume   82.82741021
_cell_formula_units_Z   1
loop_
 _symmetry_equiv_pos_site_id
 _symmetry_equiv_pos_as_xyz
  1  'x, y, z'
loop_
 _atom_site_type_symbol
 _atom_site_label
 _atom_site_symmetry_multiplicity
 _atom_site_fract_x
 _atom_site_fract_y
 _atom_site_fract_z
 _atom_site_occupancy
  Gd  Gd0  1  0.00000000  0.99992500  0.99991900  1.0
  Co  Co1  1  0.00000000  0.66652833  0.33333333  1.0
  Co  Co2  1  0.50000000  0.00007100  0.50007200  1.0
  Co  Co3  1  0.50000000  0.50003300  0.50010800  1.0
  Co  Co4  1  0.50000000  0.50012400  0.00019100  1.0
  Si  Si5  1  1.00000000  0.33333100  0.66648900  1.0
