# generated using pymatgen
data_GdTlPd
_symmetry_space_group_name_H-M   'P 1'
_cell_length_a   3.85035400
_cell_length_b   7.92044800
_cell_length_c   7.92044698
_cell_angle_alpha   120.00000426
_cell_angle_beta   90.00000000
_cell_angle_gamma   90.00000000
_symmetry_Int_Tables_number   1
_chemical_formula_structural   GdTlPd
_chemical_formula_sum   'Gd3 Tl3 Pd3'
_cell_volume   209.18508285
_cell_formula_units_Z   3
loop_
 _symmetry_equiv_pos_site_id
 _symmetry_equiv_pos_as_xyz
  1  'x, y, z'
loop_
 _atom_site_type_symbol
 _atom_site_label
 _atom_site_symmetry_multiplicity
 _atom_site_fract_x
 _atom_site_fract_y
 _atom_site_fract_z
 _atom_site_occupancy
  Gd  Gd0  1  0.50000000  0.40241000  0.40241000  1.0
  Gd  Gd1  1  0.50000000  0.59759000  1.00000000  1.0
  Gd  Gd2  1  0.50000000  1.00000000  0.59759000  1.0
  Tl  Tl3  1  0.00000000  0.73400100  0.73400100  1.0
  Tl  Tl4  1  0.00000000  0.26599900  0.00000000  1.0
  Tl  Tl5  1  1.00000000  0.00000000  0.26599900  1.0
  Pd  Pd6  1  0.00000000  0.66666667  0.33333333  1.0
  Pd  Pd7  1  0.00000000  0.33333333  0.66666667  1.0
  Pd  Pd8  1  0.50000000  0.00000000  0.00000000  1.0
