# generated using pymatgen
data_GdTlS2
_symmetry_space_group_name_H-M   'P 1'
_cell_length_a   4.09988482
_cell_length_b   4.09988482
_cell_length_c   7.87421654
_cell_angle_alpha   74.90999056
_cell_angle_beta   74.90999056
_cell_angle_gamma   59.99998676
_symmetry_Int_Tables_number   1
_chemical_formula_structural   GdTlS2
_chemical_formula_sum   'Gd1 Tl1 S2'
_cell_volume   109.32373294
_cell_formula_units_Z   1
loop_
 _symmetry_equiv_pos_site_id
 _symmetry_equiv_pos_as_xyz
  1  'x, y, z'
loop_
 _atom_site_type_symbol
 _atom_site_label
 _atom_site_symmetry_multiplicity
 _atom_site_fract_x
 _atom_site_fract_y
 _atom_site_fract_z
 _atom_site_occupancy
  Gd  Gd0  1  0.00000000  0.00000000  0.00000000  1.0
  Tl  Tl1  1  0.50000000  0.50000000  0.50000000  1.0
  S  S2  1  0.73299300  0.73299300  0.80102100  1.0
  S  S3  1  0.26700700  0.26700700  0.19897900  1.0
