# generated using pymatgen
data_GeS2
_symmetry_space_group_name_H-M   'P 1'
_cell_length_a   6.95789888
_cell_length_b   6.95789888
_cell_length_c   12.02529386
_cell_angle_alpha   99.28495404
_cell_angle_beta   99.28495405
_cell_angle_gamma   116.25059550
_symmetry_Int_Tables_number   1
_chemical_formula_structural   GeS2
_chemical_formula_sum   'Ge6 S12'
_cell_volume   497.16344220
_cell_formula_units_Z   6
loop_
 _symmetry_equiv_pos_site_id
 _symmetry_equiv_pos_as_xyz
  1  'x, y, z'
loop_
 _atom_site_type_symbol
 _atom_site_label
 _atom_site_symmetry_multiplicity
 _atom_site_fract_x
 _atom_site_fract_y
 _atom_site_fract_z
 _atom_site_occupancy
  Ge  Ge0  1  0.98950500  0.73259400  0.72577400  1.0
  Ge  Ge1  1  0.00501100  0.00501100  1.00000000  1.0
  Ge  Ge2  1  0.25501100  0.75501100  0.50000000  1.0
  Ge  Ge3  1  0.00682000  0.26373100  0.27422600  1.0
  Ge  Ge4  1  0.98259400  0.73950500  0.22577400  1.0
  Ge  Ge5  1  0.51373100  0.75682000  0.77422600  1.0
  S  S6  1  0.66872400  0.98449600  0.95516000  1.0
  S  S7  1  0.64578100  0.51645600  0.74196400  1.0
  S  S8  1  0.96356400  0.77933600  0.54484000  1.0
  S  S9  1  0.32266200  0.91821500  0.35316000  1.0
  S  S10  1  0.77449200  0.90381700  0.25803600  1.0
  S  S11  1  0.21950200  0.31505500  0.14684000  1.0
  S  S12  1  0.23449600  0.41872400  0.45516000  1.0
  S  S13  1  0.02933600  0.71356400  0.04484000  1.0
  S  S14  1  0.56505500  0.96950200  0.64684000  1.0
  S  S15  1  0.76645600  0.39578100  0.24196400  1.0
  S  S16  1  0.15381700  0.52449200  0.75803600  1.0
  S  S17  1  0.16821500  0.07266200  0.85316000  1.0
