# generated using pymatgen
data_GeSe2
_symmetry_space_group_name_H-M   'P 1'
_cell_length_a   6.07063400
_cell_length_b   6.45829225
_cell_length_c   6.07063400
_cell_angle_alpha   118.03348886
_cell_angle_beta   90.00000000
_cell_angle_gamma   118.03348886
_symmetry_Int_Tables_number   1
_chemical_formula_structural   GeSe2
_chemical_formula_sum   'Ge2 Se4'
_cell_volume   177.82376825
_cell_formula_units_Z   2
loop_
 _symmetry_equiv_pos_site_id
 _symmetry_equiv_pos_as_xyz
  1  'x, y, z'
loop_
 _atom_site_type_symbol
 _atom_site_label
 _atom_site_symmetry_multiplicity
 _atom_site_fract_x
 _atom_site_fract_y
 _atom_site_fract_z
 _atom_site_occupancy
  Ge  Ge0  1  0.00000000  0.00000000  0.00000000  1.0
  Ge  Ge1  1  0.25000000  0.50000000  0.75000000  1.0
  Se  Se2  1  0.62500000  0.75000000  0.10892100  1.0
  Se  Se3  1  0.35892100  0.25000000  0.37500000  1.0
  Se  Se4  1  0.89107900  0.25000000  0.87500000  1.0
  Se  Se5  1  0.12500000  0.75000000  0.64107900  1.0
