# generated using pymatgen
data_H2SO4
_symmetry_space_group_name_H-M   'P 1'
_cell_length_a   4.74754530
_cell_length_b   4.74754530
_cell_length_c   8.87907675
_cell_angle_alpha   92.95290730
_cell_angle_beta   102.92901064
_cell_angle_gamma   119.02547278
_symmetry_Int_Tables_number   1
_chemical_formula_structural   H2SO4
_chemical_formula_sum   'H4 S2 O8'
_cell_volume   167.52000604
_cell_formula_units_Z   2
loop_
 _symmetry_equiv_pos_site_id
 _symmetry_equiv_pos_as_xyz
  1  'x, y, z'
loop_
 _atom_site_type_symbol
 _atom_site_label
 _atom_site_symmetry_multiplicity
 _atom_site_fract_x
 _atom_site_fract_y
 _atom_site_fract_z
 _atom_site_occupancy
  H  H0  1  0.08925000  0.53366200  0.39028800  1.0
  H  H1  1  0.35662600  0.30103800  0.89028800  1.0
  H  H2  1  0.41489200  0.72758900  0.16826800  1.0
  H  H3  1  0.94067900  0.75337600  0.66826800  1.0
  S  S4  1  0.12703700  0.90728400  0.25526800  1.0
  S  S5  1  0.84798400  0.12823100  0.75526800  1.0
  O  O6  1  0.81907700  0.68280200  0.13655400  1.0
  O  O7  1  0.13969900  0.76348300  0.41178300  1.0
  O  O8  1  0.14830000  0.27208400  0.91178300  1.0
  O  O9  1  0.95375200  0.31747700  0.63655400  1.0
  O  O10  1  0.43669700  0.93971700  0.20467400  1.0
  O  O11  1  0.21409600  0.23971300  0.30292800  1.0
  O  O12  1  0.56321500  0.08883200  0.80292800  1.0
  O  O13  1  0.76495700  0.76797700  0.70467400  1.0
