# generated using pymatgen
data_HeSiO2
_symmetry_space_group_name_H-M   'P 1'
_cell_length_a   5.19108612
_cell_length_b   5.19108612
_cell_length_c   9.14819787
_cell_angle_alpha   73.51753329
_cell_angle_beta   73.51753329
_cell_angle_gamma   59.99999846
_symmetry_Int_Tables_number   1
_chemical_formula_structural   HeSiO2
_chemical_formula_sum   'He4 Si4 O8'
_cell_volume   201.71022297
_cell_formula_units_Z   4
loop_
 _symmetry_equiv_pos_site_id
 _symmetry_equiv_pos_as_xyz
  1  'x, y, z'
loop_
 _atom_site_type_symbol
 _atom_site_label
 _atom_site_symmetry_multiplicity
 _atom_site_fract_x
 _atom_site_fract_y
 _atom_site_fract_z
 _atom_site_occupancy
  He  He0  1  0.67995500  0.67995500  0.96013500  1.0
  He  He1  1  0.32004500  0.32004500  0.03986500  1.0
  He  He2  1  0.17995500  0.17995500  0.46013500  1.0
  He  He3  1  0.82004500  0.82004500  0.53986500  1.0
  Si  Si4  1  0.93761700  0.93761700  0.18714900  1.0
  Si  Si5  1  0.06238300  0.06238300  0.81285100  1.0
  Si  Si6  1  0.43761700  0.43761700  0.68714900  1.0
  Si  Si7  1  0.56238300  0.56238300  0.31285100  1.0
  O  O8  1  0.00000000  0.00000000  0.00000000  1.0
  O  O9  1  0.50000000  0.50000000  0.50000000  1.0
  O  O10  1  0.69390900  0.25000000  0.25000000  1.0
  O  O11  1  0.25000000  0.80609100  0.25000000  1.0
  O  O12  1  0.80609100  0.69390900  0.25000000  1.0
  O  O13  1  0.30609100  0.75000000  0.75000000  1.0
  O  O14  1  0.75000000  0.19390900  0.75000000  1.0
  O  O15  1  0.19390900  0.30609100  0.75000000  1.0
