# generated using pymatgen
data_Hf2Al3
_symmetry_space_group_name_H-M   'P 1'
_cell_length_a   5.51690293
_cell_length_b   5.51690293
_cell_length_c   7.44308848
_cell_angle_alpha   100.72944012
_cell_angle_beta   100.72944004
_cell_angle_gamma   119.84506013
_symmetry_Int_Tables_number   1
_chemical_formula_structural   Hf2Al3
_chemical_formula_sum   'Hf4 Al6'
_cell_volume   182.43408077
_cell_formula_units_Z   2
loop_
 _symmetry_equiv_pos_site_id
 _symmetry_equiv_pos_as_xyz
  1  'x, y, z'
loop_
 _atom_site_type_symbol
 _atom_site_label
 _atom_site_symmetry_multiplicity
 _atom_site_fract_x
 _atom_site_fract_y
 _atom_site_fract_z
 _atom_site_occupancy
  Hf  Hf0  1  0.13753600  0.76809400  0.89405000  1.0
  Hf  Hf1  1  0.87404300  0.24348600  0.10594900  1.0
  Hf  Hf2  1  0.01809400  0.88753600  0.39405100  1.0
  Hf  Hf3  1  0.49348600  0.62404300  0.60595000  1.0
  Al  Al4  1  0.62484300  0.62484300  0.00000000  1.0
  Al  Al5  1  0.87484300  0.37484300  0.50000000  1.0
  Al  Al6  1  0.54336800  0.17851200  0.72830200  1.0
  Al  Al7  1  0.45021000  0.81506600  0.27169800  1.0
  Al  Al8  1  0.42851200  0.29336800  0.22830200  1.0
  Al  Al9  1  0.06506600  0.20021000  0.77169800  1.0
