# generated using pymatgen
data_Hf3(CuSi)4
_symmetry_space_group_name_H-M   'P 1'
_cell_length_a   3.91901000
_cell_length_b   6.37316400
_cell_length_c   7.50748783
_cell_angle_alpha   115.11609784
_cell_angle_beta   105.12980751
_cell_angle_gamma   90.00000000
_symmetry_Int_Tables_number   1
_chemical_formula_structural   Hf3(CuSi)4
_chemical_formula_sum   'Hf3 Cu4 Si4'
_cell_volume   162.57454337
_cell_formula_units_Z   1
loop_
 _symmetry_equiv_pos_site_id
 _symmetry_equiv_pos_as_xyz
  1  'x, y, z'
loop_
 _atom_site_type_symbol
 _atom_site_label
 _atom_site_symmetry_multiplicity
 _atom_site_fract_x
 _atom_site_fract_y
 _atom_site_fract_z
 _atom_site_occupancy
  Hf  Hf0  1  0.12338300  0.12338300  0.24676600  1.0
  Hf  Hf1  1  0.87661700  0.87661700  0.75323400  1.0
  Hf  Hf2  1  0.00000000  0.50000000  0.00000000  1.0
  Cu  Cu3  1  0.67022600  0.47670300  0.34045200  1.0
  Cu  Cu4  1  0.32977400  0.13625100  0.65954800  1.0
  Cu  Cu5  1  0.67022600  0.86374900  0.34045200  1.0
  Cu  Cu6  1  0.32977400  0.52329700  0.65954800  1.0
  Si  Si7  1  0.50000000  0.19177500  0.00000000  1.0
  Si  Si8  1  0.50000000  0.80822500  0.00000000  1.0
  Si  Si9  1  0.21580200  0.71580200  0.43160400  1.0
  Si  Si10  1  0.78419800  0.28419800  0.56839600  1.0
