# generated using pymatgen
data_Hf3AlGe5
_symmetry_space_group_name_H-M   'P 1'
_cell_length_a   3.78537000
_cell_length_b   3.83356400
_cell_length_c   22.38887178
_cell_angle_alpha   94.91128472
_cell_angle_beta   90.00000000
_cell_angle_gamma   90.00000000
_symmetry_Int_Tables_number   1
_chemical_formula_structural   Hf3AlGe5
_chemical_formula_sum   'Hf6 Al2 Ge10'
_cell_volume   323.70230813
_cell_formula_units_Z   2
loop_
 _symmetry_equiv_pos_site_id
 _symmetry_equiv_pos_as_xyz
  1  'x, y, z'
loop_
 _atom_site_type_symbol
 _atom_site_label
 _atom_site_symmetry_multiplicity
 _atom_site_fract_x
 _atom_site_fract_y
 _atom_site_fract_z
 _atom_site_occupancy
  Hf  Hf0  1  0.50000000  0.86884500  0.73769000  1.0
  Hf  Hf1  1  0.50000000  0.20023300  0.40046600  1.0
  Hf  Hf2  1  0.50000000  0.53318600  0.06637200  1.0
  Hf  Hf3  1  1.00000000  0.46458400  0.92916800  1.0
  Hf  Hf4  1  1.00000000  0.80024900  0.60049800  1.0
  Hf  Hf5  1  1.00000000  0.13320000  0.26640000  1.0
  Al  Al6  1  1.00000000  0.24993700  0.49987400  1.0
  Al  Al7  1  0.00000000  0.58321900  0.16643800  1.0
  Ge  Ge8  1  0.50000000  0.41685500  0.83371000  1.0
  Ge  Ge9  1  0.50000000  0.75006000  0.50012000  1.0
  Ge  Ge10  1  0.50000000  0.08343900  0.16687800  1.0
  Ge  Ge11  1  1.00000000  0.91669700  0.83339400  1.0
  Ge  Ge12  1  0.50000000  0.97973200  0.95946400  1.0
  Ge  Ge13  1  0.50000000  0.31130600  0.62261200  1.0
  Ge  Ge14  1  0.50000000  0.64505000  0.29010000  1.0
  Ge  Ge15  1  1.00000000  0.35343000  0.70686000  1.0
  Ge  Ge16  1  1.00000000  0.68806400  0.37612800  1.0
  Ge  Ge17  1  1.00000000  0.02192100  0.04384200  1.0
