# generated using pymatgen
data_Hf3Ga3Pd2Pt
_symmetry_space_group_name_H-M   'P 1'
_cell_length_a   6.98518200
_cell_length_b   7.18344200
_cell_length_c   7.18344178
_cell_angle_alpha   120.00000103
_cell_angle_beta   90.00000000
_cell_angle_gamma   90.00000000
_symmetry_Int_Tables_number   1
_chemical_formula_structural   Hf3Ga3Pd2Pt
_chemical_formula_sum   'Hf6 Ga6 Pd4 Pt2'
_cell_volume   312.15731711
_cell_formula_units_Z   2
loop_
 _symmetry_equiv_pos_site_id
 _symmetry_equiv_pos_as_xyz
  1  'x, y, z'
loop_
 _atom_site_type_symbol
 _atom_site_label
 _atom_site_symmetry_multiplicity
 _atom_site_fract_x
 _atom_site_fract_y
 _atom_site_fract_z
 _atom_site_occupancy
  Hf  Hf0  1  1.00000000  0.25372300  0.30890200  1.0
  Hf  Hf1  1  1.00000000  0.69109900  0.94482200  1.0
  Hf  Hf2  1  1.00000000  0.05517900  0.74627800  1.0
  Hf  Hf3  1  0.50000000  0.64343500  0.92119600  1.0
  Hf  Hf4  1  0.50000000  0.27776100  0.35656500  1.0
  Hf  Hf5  1  0.50000000  0.07880400  0.72223900  1.0
  Ga  Ga6  1  0.25009400  0.40170900  0.06771200  1.0
  Ga  Ga7  1  0.25009400  0.93228800  0.33399700  1.0
  Ga  Ga8  1  0.25009400  0.66600300  0.59829100  1.0
  Ga  Ga9  1  0.74990600  0.40170900  0.06771200  1.0
  Ga  Ga10  1  0.74990600  0.93228800  0.33399700  1.0
  Ga  Ga11  1  0.74990600  0.66600300  0.59829100  1.0
  Pd  Pd12  1  1.00000000  0.66666667  0.33333333  1.0
  Pd  Pd13  1  0.50000000  0.66666667  0.33333333  1.0
  Pd  Pd14  1  0.21511400  0.33333333  0.66666667  1.0
  Pd  Pd15  1  0.78488600  0.33333333  0.66666667  1.0
  Pt  Pt16  1  0.71527300  0.00000000  0.00000000  1.0
  Pt  Pt17  1  0.28472700  0.00000000  0.00000000  1.0
