# generated using pymatgen
data_Hf3Pb
_symmetry_space_group_name_H-M   'P 1'
_cell_length_a   4.36300600
_cell_length_b   4.36300600
_cell_length_c   5.67661645
_cell_angle_alpha   112.60006395
_cell_angle_beta   112.60006396
_cell_angle_gamma   89.99999999
_symmetry_Int_Tables_number   1
_chemical_formula_structural   Hf3Pb
_chemical_formula_sum   'Hf3 Pb1'
_cell_volume   90.70736388
_cell_formula_units_Z   1
loop_
 _symmetry_equiv_pos_site_id
 _symmetry_equiv_pos_as_xyz
  1  'x, y, z'
loop_
 _atom_site_type_symbol
 _atom_site_label
 _atom_site_symmetry_multiplicity
 _atom_site_fract_x
 _atom_site_fract_y
 _atom_site_fract_z
 _atom_site_occupancy
  Hf  Hf0  1  0.75000000  0.25000000  0.50000000  1.0
  Hf  Hf1  1  0.25000000  0.75000000  0.50000000  1.0
  Hf  Hf2  1  0.50000000  0.50000000  0.00000000  1.0
  Pb  Pb3  1  0.00000000  0.00000000  0.00000000  1.0
