# generated using pymatgen
data_Hf3Ti2Ga3
_symmetry_space_group_name_H-M   'P 1'
_cell_length_a   5.46143200
_cell_length_b   7.88906200
_cell_length_c   7.88906191
_cell_angle_alpha   120.00000038
_cell_angle_beta   90.00000000
_cell_angle_gamma   90.00000000
_symmetry_Int_Tables_number   1
_chemical_formula_structural   Hf3Ti2Ga3
_chemical_formula_sum   'Hf6 Ti4 Ga6'
_cell_volume   294.36616786
_cell_formula_units_Z   2
loop_
 _symmetry_equiv_pos_site_id
 _symmetry_equiv_pos_as_xyz
  1  'x, y, z'
loop_
 _atom_site_type_symbol
 _atom_site_label
 _atom_site_symmetry_multiplicity
 _atom_site_fract_x
 _atom_site_fract_y
 _atom_site_fract_z
 _atom_site_occupancy
  Hf  Hf0  1  0.75000000  0.75772600  0.75772600  1.0
  Hf  Hf1  1  0.25000000  0.24227400  0.24227400  1.0
  Hf  Hf2  1  0.75000000  1.00000000  0.24227400  1.0
  Hf  Hf3  1  0.25000000  1.00000000  0.75772600  1.0
  Hf  Hf4  1  0.75000000  0.24227400  0.00000000  1.0
  Hf  Hf5  1  0.25000000  0.75772600  0.00000000  1.0
  Ti  Ti6  1  1.00000000  0.66666667  0.33333333  1.0
  Ti  Ti7  1  1.00000000  0.33333333  0.66666667  1.0
  Ti  Ti8  1  0.50000000  0.33333333  0.66666667  1.0
  Ti  Ti9  1  0.50000000  0.66666667  0.33333333  1.0
  Ga  Ga10  1  0.75000000  0.39930400  0.39930400  1.0
  Ga  Ga11  1  0.25000000  0.60069600  0.60069600  1.0
  Ga  Ga12  1  0.75000000  1.00000000  0.60069600  1.0
  Ga  Ga13  1  0.25000000  1.00000000  0.39930400  1.0
  Ga  Ga14  1  0.75000000  0.60069600  0.00000000  1.0
  Ga  Ga15  1  0.25000000  0.39930400  0.00000000  1.0
