# generated using pymatgen
data_HfAl3
_symmetry_space_group_name_H-M   'P 1'
_cell_length_a   3.99884800
_cell_length_b   3.99884800
_cell_length_c   9.06115652
_cell_angle_alpha   102.74773092
_cell_angle_beta   102.74773093
_cell_angle_gamma   89.99999999
_symmetry_Int_Tables_number   1
_chemical_formula_structural   HfAl3
_chemical_formula_sum   'Hf2 Al6'
_cell_volume   137.65936213
_cell_formula_units_Z   2
loop_
 _symmetry_equiv_pos_site_id
 _symmetry_equiv_pos_as_xyz
  1  'x, y, z'
loop_
 _atom_site_type_symbol
 _atom_site_label
 _atom_site_symmetry_multiplicity
 _atom_site_fract_x
 _atom_site_fract_y
 _atom_site_fract_z
 _atom_site_occupancy
  Hf  Hf0  1  0.11975300  0.11975300  0.23950600  1.0
  Hf  Hf1  1  0.88024700  0.88024700  0.76049400  1.0
  Al  Al2  1  0.37449200  0.37449200  0.74898400  1.0
  Al  Al3  1  0.50000000  0.00000000  0.00000000  1.0
  Al  Al4  1  0.62550800  0.62550800  0.25101600  1.0
  Al  Al5  1  0.75000000  0.25000000  0.50000000  1.0
  Al  Al6  1  0.25000000  0.75000000  0.50000000  1.0
  Al  Al7  1  1.00000000  0.50000000  1.00000000  1.0
