# generated using pymatgen
data_HfAlZn
_symmetry_space_group_name_H-M   'P 1'
_cell_length_a   5.19791800
_cell_length_b   5.22326332
_cell_length_c   5.22326332
_cell_angle_alpha   60.62862292
_cell_angle_beta   60.16038641
_cell_angle_gamma   60.16038640
_symmetry_Int_Tables_number   1
_chemical_formula_structural   HfAlZn
_chemical_formula_sum   'Hf2 Al2 Zn2'
_cell_volume   100.98986294
_cell_formula_units_Z   2
loop_
 _symmetry_equiv_pos_site_id
 _symmetry_equiv_pos_as_xyz
  1  'x, y, z'
loop_
 _atom_site_type_symbol
 _atom_site_label
 _atom_site_symmetry_multiplicity
 _atom_site_fract_x
 _atom_site_fract_y
 _atom_site_fract_z
 _atom_site_occupancy
  Hf  Hf0  1  0.87393000  0.37607000  0.87607000  1.0
  Hf  Hf1  1  0.12607100  0.62393000  0.12392900  1.0
  Al  Al2  1  0.50000000  0.50000000  0.50000000  1.0
  Al  Al3  1  0.50000000  0.00000000  0.00000000  1.0
  Zn  Zn4  1  1.00000000  0.00000000  0.50000000  1.0
  Zn  Zn5  1  0.50000000  1.00000000  0.50000000  1.0
