# generated using pymatgen
data_HfBrN
_symmetry_space_group_name_H-M   'P 1'
_cell_length_a   3.63364847
_cell_length_b   3.63364847
_cell_length_c   10.50626008
_cell_angle_alpha   80.04190768
_cell_angle_beta   80.04190768
_cell_angle_gamma   59.99999137
_symmetry_Int_Tables_number   1
_chemical_formula_structural   HfBrN
_chemical_formula_sum   'Hf2 Br2 N2'
_cell_volume   117.71427222
_cell_formula_units_Z   2
loop_
 _symmetry_equiv_pos_site_id
 _symmetry_equiv_pos_as_xyz
  1  'x, y, z'
loop_
 _atom_site_type_symbol
 _atom_site_label
 _atom_site_symmetry_multiplicity
 _atom_site_fract_x
 _atom_site_fract_y
 _atom_site_fract_z
 _atom_site_occupancy
  Hf  Hf0  1  0.79157900  0.79157900  0.62526300  1.0
  Hf  Hf1  1  0.20842100  0.20842100  0.37473700  1.0
  Br  Br2  1  0.60608800  0.60608800  0.18173600  1.0
  Br  Br3  1  0.39391200  0.39391200  0.81826400  1.0
  N  N4  1  0.86144900  0.86144900  0.41565300  1.0
  N  N5  1  0.13855100  0.13855100  0.58434700  1.0
