# generated using pymatgen
data_HfCrCuS4
_symmetry_space_group_name_H-M   'P 1'
_cell_length_a   3.57564297
_cell_length_b   5.96790969
_cell_length_c   6.04970641
_cell_angle_alpha   87.42208591
_cell_angle_beta   89.99866279
_cell_angle_gamma   89.99817083
_symmetry_Int_Tables_number   1
_chemical_formula_structural   HfCrCuS4
_chemical_formula_sum   'Hf1 Cr1 Cu1 S4'
_cell_volume   128.96472976
_cell_formula_units_Z   1
loop_
 _symmetry_equiv_pos_site_id
 _symmetry_equiv_pos_as_xyz
  1  'x, y, z'
loop_
 _atom_site_type_symbol
 _atom_site_label
 _atom_site_symmetry_multiplicity
 _atom_site_fract_x
 _atom_site_fract_y
 _atom_site_fract_z
 _atom_site_occupancy
  Cr  Cr2  1  0.99998200  0.49995400  0.00001750  1.0
  Cu  Cu4  1  0.99999500  0.00000550  0.99998300  1.0
  Hf  Hf0  1  0.49999300  0.50001000  0.49999850  1.0
  S  S6  1  0.00000800  0.25754900  0.68742750  1.0
  S  S8  1  0.50002000  0.26371100  0.16144000  1.0
  S  S10  1  0.50001300  0.73628550  0.83857250  1.0
  S  S12  1  0.99998900  0.74248500  0.31256150  1.0
