# generated using pymatgen
data_HfNi3
_symmetry_space_group_name_H-M   'P 1'
_cell_length_a   5.26838760
_cell_length_b   5.26838760
_cell_length_c   7.10730798
_cell_angle_alpha   68.24541960
_cell_angle_beta   68.24541960
_cell_angle_gamma   60.00000506
_symmetry_Int_Tables_number   1
_chemical_formula_structural   HfNi3
_chemical_formula_sum   'Hf3 Ni9'
_cell_volume   154.40468889
_cell_formula_units_Z   3
loop_
 _symmetry_equiv_pos_site_id
 _symmetry_equiv_pos_as_xyz
  1  'x, y, z'
loop_
 _atom_site_type_symbol
 _atom_site_label
 _atom_site_symmetry_multiplicity
 _atom_site_fract_x
 _atom_site_fract_y
 _atom_site_fract_z
 _atom_site_occupancy
  Hf  Hf0  1  0.78122500  0.78122500  0.65632500  1.0
  Hf  Hf1  1  0.21877500  0.21877500  0.34367500  1.0
  Hf  Hf2  1  0.00000000  0.00000000  0.00000000  1.0
  Ni  Ni3  1  0.71275300  0.24426700  0.33022700  1.0
  Ni  Ni4  1  0.24426700  0.71275300  0.33022700  1.0
  Ni  Ni5  1  0.71275300  0.71275300  0.33022700  1.0
  Ni  Ni6  1  0.50000000  0.50000000  0.00000000  1.0
  Ni  Ni7  1  0.00000000  0.50000000  0.00000000  1.0
  Ni  Ni8  1  0.50000000  0.00000000  0.00000000  1.0
  Ni  Ni9  1  0.28724700  0.28724700  0.66977300  1.0
  Ni  Ni10  1  0.75573300  0.28724700  0.66977300  1.0
  Ni  Ni11  1  0.28724700  0.75573300  0.66977300  1.0
