# generated using pymatgen
data_HfTi(PbO3)2
_symmetry_space_group_name_H-M   'P 1'
_cell_length_a   5.70817800
_cell_length_b   5.83455395
_cell_length_c   5.70817800
_cell_angle_alpha   119.28604545
_cell_angle_beta   90.00000000
_cell_angle_gamma   119.28604545
_symmetry_Int_Tables_number   1
_chemical_formula_structural   HfTi(PbO3)2
_chemical_formula_sum   'Hf1 Ti1 Pb2 O6'
_cell_volume   137.27730408
_cell_formula_units_Z   1
loop_
 _symmetry_equiv_pos_site_id
 _symmetry_equiv_pos_as_xyz
  1  'x, y, z'
loop_
 _atom_site_type_symbol
 _atom_site_label
 _atom_site_symmetry_multiplicity
 _atom_site_fract_x
 _atom_site_fract_y
 _atom_site_fract_z
 _atom_site_occupancy
  Hf  Hf0  1  0.72953500  0.45907000  0.72953500  1.0
  Ti  Ti1  1  0.22943900  0.45887800  0.22943900  1.0
  Pb  Pb2  1  0.00547700  0.01095400  0.50547700  1.0
  Pb  Pb3  1  0.50547700  0.01095400  0.00547700  1.0
  O  O4  1  0.43848100  0.38875300  0.95027200  1.0
  O  O5  1  0.95027100  0.38875100  0.43848000  1.0
  O  O6  1  0.43848100  0.38875200  0.43848100  1.0
  O  O7  1  0.95027100  0.38875200  0.95027100  1.0
  O  O8  1  0.44758700  0.89517400  0.44758700  1.0
  O  O9  1  0.96098200  0.92196400  0.96098200  1.0
