# generated using pymatgen
data_HfZr3
_symmetry_space_group_name_H-M   'P 1'
_cell_length_a   5.16762300
_cell_length_b   6.45153200
_cell_length_c   6.45153148
_cell_angle_alpha   120.00000269
_cell_angle_beta   90.00000000
_cell_angle_gamma   90.00000000
_symmetry_Int_Tables_number   1
_chemical_formula_structural   HfZr3
_chemical_formula_sum   'Hf2 Zr6'
_cell_volume   186.27180340
_cell_formula_units_Z   2
loop_
 _symmetry_equiv_pos_site_id
 _symmetry_equiv_pos_as_xyz
  1  'x, y, z'
loop_
 _atom_site_type_symbol
 _atom_site_label
 _atom_site_symmetry_multiplicity
 _atom_site_fract_x
 _atom_site_fract_y
 _atom_site_fract_z
 _atom_site_occupancy
  Hf  Hf0  1  0.25000000  0.66666667  0.33333333  1.0
  Hf  Hf1  1  0.75000000  0.33333333  0.66666667  1.0
  Zr  Zr2  1  0.75000000  0.83292900  0.16707100  1.0
  Zr  Zr3  1  0.75000000  0.33414200  0.16707100  1.0
  Zr  Zr4  1  0.75000000  0.83292900  0.66585800  1.0
  Zr  Zr5  1  0.25000000  0.16707100  0.83292900  1.0
  Zr  Zr6  1  0.25000000  0.66585800  0.83292900  1.0
  Zr  Zr7  1  0.25000000  0.16707100  0.33414200  1.0
