# generated using pymatgen
data_Hg2ClO
_symmetry_space_group_name_H-M   'P 1'
_cell_length_a   6.10631200
_cell_length_b   6.87043980
_cell_length_c   9.75211341
_cell_angle_alpha   103.95183622
_cell_angle_beta   90.00000000
_cell_angle_gamma   116.38432947
_symmetry_Int_Tables_number   1
_chemical_formula_structural   Hg2ClO
_chemical_formula_sum   'Hg8 Cl4 O4'
_cell_volume   352.98896803
_cell_formula_units_Z   4
loop_
 _symmetry_equiv_pos_site_id
 _symmetry_equiv_pos_as_xyz
  1  'x, y, z'
loop_
 _atom_site_type_symbol
 _atom_site_label
 _atom_site_symmetry_multiplicity
 _atom_site_fract_x
 _atom_site_fract_y
 _atom_site_fract_z
 _atom_site_occupancy
  Hg  Hg0  1  0.75590800  0.89921900  0.60376300  1.0
  Hg  Hg1  1  0.85668900  0.10078100  0.89623700  1.0
  Hg  Hg2  1  0.24409200  0.10078100  0.39623700  1.0
  Hg  Hg3  1  0.14331100  0.89921900  0.10376300  1.0
  Hg  Hg4  1  0.40566900  0.00000000  0.75000000  1.0
  Hg  Hg5  1  0.59433100  0.00000000  0.25000000  1.0
  Hg  Hg6  1  0.00000000  0.50000000  0.50000000  1.0
  Hg  Hg7  1  0.50000000  0.50000000  0.00000000  1.0
  Cl  Cl8  1  0.89082400  0.37973900  0.14056000  1.0
  Cl  Cl9  1  0.51108500  0.62026100  0.35944000  1.0
  Cl  Cl10  1  0.10917600  0.62026100  0.85944000  1.0
  Cl  Cl11  1  0.48891500  0.37973900  0.64056000  1.0
  O  O12  1  0.90439700  0.15936400  0.43928300  1.0
  O  O13  1  0.74503300  0.84063600  0.06071700  1.0
  O  O14  1  0.09560300  0.84063600  0.56071700  1.0
  O  O15  1  0.25496700  0.15936400  0.93928300  1.0
