# generated using pymatgen
data_Hg3Pb
_symmetry_space_group_name_H-M   'P 1'
_cell_length_a   5.31048400
_cell_length_b   6.91218600
_cell_length_c   6.91218628
_cell_angle_alpha   60.00000136
_cell_angle_beta   90.00000000
_cell_angle_gamma   90.00000000
_symmetry_Int_Tables_number   1
_chemical_formula_structural   Hg3Pb
_chemical_formula_sum   'Hg6 Pb2'
_cell_volume   219.73315514
_cell_formula_units_Z   2
loop_
 _symmetry_equiv_pos_site_id
 _symmetry_equiv_pos_as_xyz
  1  'x, y, z'
loop_
 _atom_site_type_symbol
 _atom_site_label
 _atom_site_symmetry_multiplicity
 _atom_site_fract_x
 _atom_site_fract_y
 _atom_site_fract_z
 _atom_site_occupancy
  Hg  Hg0  1  0.75000000  0.67448900  0.16275600  1.0
  Hg  Hg1  1  0.75000000  0.16275500  0.16275600  1.0
  Hg  Hg2  1  0.75000000  0.16275500  0.67449000  1.0
  Hg  Hg3  1  0.25000000  0.32551100  0.83724400  1.0
  Hg  Hg4  1  0.25000000  0.83724500  0.83724400  1.0
  Hg  Hg5  1  0.25000000  0.83724500  0.32551000  1.0
  Pb  Pb6  1  0.25000000  0.33333333  0.33333333  1.0
  Pb  Pb7  1  0.75000000  0.66666667  0.66666667  1.0
