# generated using pymatgen
data_Ho(NiB)2
_symmetry_space_group_name_H-M   'P 1'
_cell_length_a   4.94197078
_cell_length_b   4.94197078
_cell_length_c   6.07609040
_cell_angle_alpha   102.56638824
_cell_angle_beta   103.85553715
_cell_angle_gamma   115.98070972
_symmetry_Int_Tables_number   1
_chemical_formula_structural   Ho(NiB)2
_chemical_formula_sum   'Ho2 Ni4 B4'
_cell_volume   120.35354487
_cell_formula_units_Z   2
loop_
 _symmetry_equiv_pos_site_id
 _symmetry_equiv_pos_as_xyz
  1  'x, y, z'
loop_
 _atom_site_type_symbol
 _atom_site_label
 _atom_site_symmetry_multiplicity
 _atom_site_fract_x
 _atom_site_fract_y
 _atom_site_fract_z
 _atom_site_occupancy
  Ho  Ho0  1  0.63247200  0.88247200  0.75000000  1.0
  Ho  Ho1  1  0.36752800  0.11752800  0.25000000  1.0
  Ni  Ni2  1  0.33281400  0.27822900  0.80007000  1.0
  Ni  Ni3  1  0.97815900  0.53274400  0.69993000  1.0
  Ni  Ni4  1  0.02184100  0.46725600  0.30007000  1.0
  Ni  Ni5  1  0.66718600  0.72177100  0.19993000  1.0
  B  B6  1  0.02840400  0.84483400  0.52325600  1.0
  B  B7  1  0.82157800  0.50514800  0.97674400  1.0
  B  B8  1  0.97159600  0.15516600  0.47674400  1.0
  B  B9  1  0.17842200  0.49485200  0.02325600  1.0
