# generated using pymatgen
data_Ho2CuO4
_symmetry_space_group_name_H-M   'P 1'
_cell_length_a   3.86262400
_cell_length_b   3.86262400
_cell_length_c   6.44671605
_cell_angle_alpha   107.43242347
_cell_angle_beta   107.43242348
_cell_angle_gamma   90.00000000
_symmetry_Int_Tables_number   1
_chemical_formula_structural   Ho2CuO4
_chemical_formula_sum   'Ho2 Cu1 O4'
_cell_volume   87.12512871
_cell_formula_units_Z   1
loop_
 _symmetry_equiv_pos_site_id
 _symmetry_equiv_pos_as_xyz
  1  'x, y, z'
loop_
 _atom_site_type_symbol
 _atom_site_label
 _atom_site_symmetry_multiplicity
 _atom_site_fract_x
 _atom_site_fract_y
 _atom_site_fract_z
 _atom_site_occupancy
  Ho  Ho0  1  0.34793800  0.34793800  0.69587600  1.0
  Ho  Ho1  1  0.65206200  0.65206200  0.30412400  1.0
  Cu  Cu2  1  0.00000000  0.00000000  0.00000000  1.0
  O  O3  1  0.50000000  0.00000000  0.00000000  1.0
  O  O4  1  0.75000000  0.25000000  0.50000000  1.0
  O  O5  1  0.00000000  0.50000000  1.00000000  1.0
  O  O6  1  0.25000000  0.75000000  0.50000000  1.0
