# generated using pymatgen
data_Ho2Ge2O7
_symmetry_space_group_name_H-M   'P 1'
_cell_length_a   5.03012983
_cell_length_b   5.76875419
_cell_length_c   5.76875419
_cell_angle_alpha   74.64250438
_cell_angle_beta   82.60616854
_cell_angle_gamma   97.39383146
_symmetry_Int_Tables_number   1
_chemical_formula_structural   Ho2Ge2O7
_chemical_formula_sum   'Ho2 Ge2 O7'
_cell_volume   157.73982945
_cell_formula_units_Z   1
loop_
 _symmetry_equiv_pos_site_id
 _symmetry_equiv_pos_as_xyz
  1  'x, y, z'
loop_
 _atom_site_type_symbol
 _atom_site_label
 _atom_site_symmetry_multiplicity
 _atom_site_fract_x
 _atom_site_fract_y
 _atom_site_fract_z
 _atom_site_occupancy
  Ho  Ho0  1  0.50000000  0.30638800  0.30638800  1.0
  Ho  Ho1  1  0.50000000  0.69361200  0.69361200  1.0
  Ge  Ge2  1  0.90934900  0.23093200  0.76906800  1.0
  Ge  Ge3  1  0.09065100  0.76906800  0.23093200  1.0
  O  O4  1  0.71255700  0.39929300  0.91951300  1.0
  O  O5  1  0.71255700  0.08048700  0.60070700  1.0
  O  O6  1  0.22323600  0.40245300  0.59754700  1.0
  O  O7  1  0.77676400  0.59754700  0.40245300  1.0
  O  O8  1  0.00000000  0.00000000  0.00000000  1.0
  O  O9  1  0.28744300  0.60070700  0.08048700  1.0
  O  O10  1  0.28744300  0.91951300  0.39929300  1.0
