# generated using pymatgen
data_Ho3(Ga2Cu)2
_symmetry_space_group_name_H-M   'P 1'
_cell_length_a   4.31956800
_cell_length_b   4.31956746
_cell_length_c   21.98910200
_cell_angle_alpha   90.00000000
_cell_angle_beta   90.00000000
_cell_angle_gamma   120.00000412
_symmetry_Int_Tables_number   1
_chemical_formula_structural   Ho3(Ga2Cu)2
_chemical_formula_sum   'Ho6 Ga8 Cu4'
_cell_volume   355.31920635
_cell_formula_units_Z   2
loop_
 _symmetry_equiv_pos_site_id
 _symmetry_equiv_pos_as_xyz
  1  'x, y, z'
loop_
 _atom_site_type_symbol
 _atom_site_label
 _atom_site_symmetry_multiplicity
 _atom_site_fract_x
 _atom_site_fract_y
 _atom_site_fract_z
 _atom_site_occupancy
  Ho  Ho0  1  0.00000000  0.00000000  0.74359200  1.0
  Ho  Ho1  1  0.00000000  0.00000000  0.41067300  1.0
  Ho  Ho2  1  0.00000000  0.00000000  0.07798400  1.0
  Ho  Ho3  1  0.00000000  0.00000000  0.92141100  1.0
  Ho  Ho4  1  0.00000000  0.00000000  0.58725100  1.0
  Ho  Ho5  1  0.00000000  0.00000000  0.25464300  1.0
  Ga  Ga6  1  0.66666667  0.33333333  0.66037500  1.0
  Ga  Ga7  1  0.66666667  0.33333333  0.32740900  1.0
  Ga  Ga8  1  0.66666667  0.33333333  0.84538800  1.0
  Ga  Ga9  1  0.66666667  0.33333333  0.51256100  1.0
  Ga  Ga10  1  0.66666667  0.33333333  0.18004400  1.0
  Ga  Ga11  1  0.33333333  0.66666667  0.81924900  1.0
  Ga  Ga12  1  0.33333333  0.66666667  0.48676900  1.0
  Ga  Ga13  1  0.33333333  0.66666667  0.15455400  1.0
  Cu  Cu14  1  0.33333333  0.66666667  0.67501100  1.0
  Cu  Cu15  1  0.33333333  0.66666667  0.34273400  1.0
  Cu  Cu16  1  0.33333333  0.66666667  0.00756500  1.0
  Cu  Cu17  1  0.66666667  0.33333333  0.99278600  1.0
