# generated using pymatgen
data_Ho4MgS7
_symmetry_space_group_name_H-M   'P 1'
_cell_length_a   3.79356200
_cell_length_b   6.56638947
_cell_length_c   11.45619974
_cell_angle_alpha   104.24251646
_cell_angle_beta   90.00000000
_cell_angle_gamma   106.78984341
_symmetry_Int_Tables_number   1
_chemical_formula_structural   Ho4MgS7
_chemical_formula_sum   'Ho4 Mg1 S7'
_cell_volume   264.03334733
_cell_formula_units_Z   1
loop_
 _symmetry_equiv_pos_site_id
 _symmetry_equiv_pos_as_xyz
  1  'x, y, z'
loop_
 _atom_site_type_symbol
 _atom_site_label
 _atom_site_symmetry_multiplicity
 _atom_site_fract_x
 _atom_site_fract_y
 _atom_site_fract_z
 _atom_site_occupancy
  Ho  Ho0  1  0.30709500  0.61419000  0.20363500  1.0
  Ho  Ho1  1  0.69340600  0.38681200  0.80205500  1.0
  Ho  Ho2  1  0.00029200  0.00058400  0.00523100  1.0
  Ho  Ho3  1  0.88628900  0.77257800  0.56811100  1.0
  Mg  Mg4  1  0.11440800  0.22881600  0.42158200  1.0
  S  S5  1  0.25680000  0.51360000  0.64112700  1.0
  S  S6  1  0.73346300  0.46692600  0.35255400  1.0
  S  S7  1  0.66102600  0.32205200  0.05052500  1.0
  S  S8  1  0.34036900  0.68073800  0.94861000  1.0
  S  S9  1  0.96393400  0.92786800  0.22339300  1.0
  S  S10  1  0.03801100  0.07602200  0.78493500  1.0
  S  S11  1  0.50490700  0.00981400  0.49824100  1.0
