# generated using pymatgen
data_Ho5BiAu2
_symmetry_space_group_name_H-M   'P 1'
_cell_length_a   8.14717600
_cell_length_b   8.69635688
_cell_length_c   8.14717600
_cell_angle_alpha   62.06791378
_cell_angle_beta   90.00000000
_cell_angle_gamma   117.93208621
_symmetry_Int_Tables_number   1
_chemical_formula_structural   Ho5BiAu2
_chemical_formula_sum   'Ho10 Bi2 Au4'
_cell_volume   432.40789917
_cell_formula_units_Z   2
loop_
 _symmetry_equiv_pos_site_id
 _symmetry_equiv_pos_as_xyz
  1  'x, y, z'
loop_
 _atom_site_type_symbol
 _atom_site_label
 _atom_site_symmetry_multiplicity
 _atom_site_fract_x
 _atom_site_fract_y
 _atom_site_fract_z
 _atom_site_occupancy
  Ho  Ho0  1  0.00000000  0.00000000  0.00000000  1.0
  Ho  Ho1  1  0.50000000  0.00000000  0.50000000  1.0
  Ho  Ho2  1  0.01472300  0.71981200  0.79491100  1.0
  Ho  Ho3  1  0.70508900  0.71981200  0.48527700  1.0
  Ho  Ho4  1  0.51472300  0.71981200  0.98527700  1.0
  Ho  Ho5  1  0.20508900  0.71981200  0.29491100  1.0
  Ho  Ho6  1  0.98527700  0.28018800  0.20508900  1.0
  Ho  Ho7  1  0.29491100  0.28018800  0.51472300  1.0
  Ho  Ho8  1  0.48527700  0.28018800  0.01472300  1.0
  Ho  Ho9  1  0.79491100  0.28018800  0.70508900  1.0
  Bi  Bi10  1  0.75000000  0.50000000  0.25000000  1.0
  Bi  Bi11  1  0.25000000  0.50000000  0.75000000  1.0
  Au  Au12  1  0.63786600  0.00000100  0.13786500  1.0
  Au  Au13  1  0.36213400  0.99999900  0.86213500  1.0
  Au  Au14  1  0.13786600  0.00000000  0.36213400  1.0
  Au  Au15  1  0.86213400  0.00000000  0.63786600  1.0
