# generated using pymatgen
data_HoAgSe2
_symmetry_space_group_name_H-M   'P 1'
_cell_length_a   5.70441800
_cell_length_b   5.70784400
_cell_length_c   7.27182522
_cell_angle_alpha   113.10783861
_cell_angle_beta   113.09316507
_cell_angle_gamma   89.99999999
_symmetry_Int_Tables_number   1
_chemical_formula_structural   HoAgSe2
_chemical_formula_sum   'Ho2 Ag2 Se4'
_cell_volume   196.97942476
_cell_formula_units_Z   2
loop_
 _symmetry_equiv_pos_site_id
 _symmetry_equiv_pos_as_xyz
  1  'x, y, z'
loop_
 _atom_site_type_symbol
 _atom_site_label
 _atom_site_symmetry_multiplicity
 _atom_site_fract_x
 _atom_site_fract_y
 _atom_site_fract_z
 _atom_site_occupancy
  Ho  Ho0  1  0.87521800  0.86802800  0.25043700  1.0
  Ho  Ho1  1  0.12478100  0.61759100  0.74956200  1.0
  Ag  Ag2  1  0.62548200  0.12129500  0.75096400  1.0
  Ag  Ag3  1  0.37451700  0.37033000  0.24903500  1.0
  Se  Se4  1  0.88871900  0.38287600  0.27743800  1.0
  Se  Se5  1  0.36165100  0.86253300  0.22330200  1.0
  Se  Se6  1  0.63834900  0.63923100  0.77669800  1.0
  Se  Se7  1  0.11128200  0.10543900  0.72256300  1.0
