# generated using pymatgen
data_HoAgPb
_symmetry_space_group_name_H-M   'P 1'
_cell_length_a   4.81844800
_cell_length_b   4.81844768
_cell_length_c   7.49978100
_cell_angle_alpha   90.00000000
_cell_angle_beta   90.00000000
_cell_angle_gamma   120.00000223
_symmetry_Int_Tables_number   1
_chemical_formula_structural   HoAgPb
_chemical_formula_sum   'Ho2 Ag2 Pb2'
_cell_volume   150.79728705
_cell_formula_units_Z   2
loop_
 _symmetry_equiv_pos_site_id
 _symmetry_equiv_pos_as_xyz
  1  'x, y, z'
loop_
 _atom_site_type_symbol
 _atom_site_label
 _atom_site_symmetry_multiplicity
 _atom_site_fract_x
 _atom_site_fract_y
 _atom_site_fract_z
 _atom_site_occupancy
  Ho  Ho0  1  0.00000000  0.00000000  0.98671400  1.0
  Ho  Ho1  1  0.00000000  0.00000000  0.48671400  1.0
  Ag  Ag2  1  0.33333333  0.66666667  0.66791100  1.0
  Ag  Ag3  1  0.66666667  0.33333333  0.16791100  1.0
  Pb  Pb4  1  0.66666667  0.33333333  0.76547500  1.0
  Pb  Pb5  1  0.33333333  0.66666667  0.26547500  1.0
