# generated using pymatgen
data_HoBiTe3
_symmetry_space_group_name_H-M   'P 1'
_cell_length_a   4.39742969
_cell_length_b   4.39742969
_cell_length_c   10.86945971
_cell_angle_alpha   78.32946417
_cell_angle_beta   78.32946417
_cell_angle_gamma   60.00000466
_symmetry_Int_Tables_number   1
_chemical_formula_structural   HoBiTe3
_chemical_formula_sum   'Ho1 Bi1 Te3'
_cell_volume   176.99206722
_cell_formula_units_Z   1
loop_
 _symmetry_equiv_pos_site_id
 _symmetry_equiv_pos_as_xyz
  1  'x, y, z'
loop_
 _atom_site_type_symbol
 _atom_site_label
 _atom_site_symmetry_multiplicity
 _atom_site_fract_x
 _atom_site_fract_y
 _atom_site_fract_z
 _atom_site_occupancy
  Ho  Ho0  1  0.39826000  0.39826000  0.80522000  1.0
  Bi  Bi1  1  0.60122400  0.60122400  0.19632800  1.0
  Te  Te2  1  0.78231100  0.78231100  0.65306700  1.0
  Te  Te3  1  0.21416200  0.21416200  0.35751400  1.0
  Te  Te4  1  0.00404300  0.00404300  0.98787100  1.0
