# generated using pymatgen
data_HoCo4Cu
_symmetry_space_group_name_H-M   'P 1'
_cell_length_a   3.97700000
_cell_length_b   4.90614867
_cell_length_c   4.90849536
_cell_angle_alpha   119.97234104
_cell_angle_beta   90.00000000
_cell_angle_gamma   90.00000000
_symmetry_Int_Tables_number   1
_chemical_formula_structural   HoCo4Cu
_chemical_formula_sum   'Ho1 Co4 Cu1'
_cell_volume   82.96526147
_cell_formula_units_Z   1
loop_
 _symmetry_equiv_pos_site_id
 _symmetry_equiv_pos_as_xyz
  1  'x, y, z'
loop_
 _atom_site_type_symbol
 _atom_site_label
 _atom_site_symmetry_multiplicity
 _atom_site_fract_x
 _atom_site_fract_y
 _atom_site_fract_z
 _atom_site_occupancy
  Ho  Ho0  1  1.00000000  0.00001800  0.00001300  1.0
  Co  Co1  1  1.00000000  0.66670300  0.33344000  1.0
  Co  Co2  1  0.50000000  0.50085500  0.49915500  1.0
  Co  Co3  1  0.50000000  0.99830800  0.49915700  1.0
  Co  Co4  1  0.50000000  0.50086700  0.00173000  1.0
  Cu  Cu5  1  0.00000000  0.33334900  0.66660500  1.0
