# generated using pymatgen
data_HoFeCo
_symmetry_space_group_name_H-M   'P 1'
_cell_length_a   5.05356200
_cell_length_b   5.09420393
_cell_length_c   5.09420393
_cell_angle_alpha   61.89820540
_cell_angle_beta   60.26356343
_cell_angle_gamma   60.26356344
_symmetry_Int_Tables_number   1
_chemical_formula_structural   HoFeCo
_chemical_formula_sum   'Ho2 Fe2 Co2'
_cell_volume   94.37349861
_cell_formula_units_Z   2
loop_
 _symmetry_equiv_pos_site_id
 _symmetry_equiv_pos_as_xyz
  1  'x, y, z'
loop_
 _atom_site_type_symbol
 _atom_site_label
 _atom_site_symmetry_multiplicity
 _atom_site_fract_x
 _atom_site_fract_y
 _atom_site_fract_z
 _atom_site_occupancy
  Ho  Ho0  1  0.87526700  0.37473300  0.87473300  1.0
  Ho  Ho1  1  0.12473300  0.62526700  0.12526700  1.0
  Fe  Fe2  1  1.00000000  1.00000000  0.50000000  1.0
  Fe  Fe3  1  0.50000000  0.00000000  0.50000000  1.0
  Co  Co4  1  0.50000000  0.50000000  0.50000000  1.0
  Co  Co5  1  0.50000000  0.00000000  1.00000000  1.0
