# generated using pymatgen
data_HoGaAg
_symmetry_space_group_name_H-M   'P 1'
_cell_length_a   4.57404800
_cell_length_b   5.72893125
_cell_length_c   5.80158711
_cell_angle_alpha   76.73972513
_cell_angle_beta   66.78349830
_cell_angle_gamma   66.47144593
_symmetry_Int_Tables_number   1
_chemical_formula_structural   HoGaAg
_chemical_formula_sum   'Ho2 Ga2 Ag2'
_cell_volume   127.63184964
_cell_formula_units_Z   2
loop_
 _symmetry_equiv_pos_site_id
 _symmetry_equiv_pos_as_xyz
  1  'x, y, z'
loop_
 _atom_site_type_symbol
 _atom_site_label
 _atom_site_symmetry_multiplicity
 _atom_site_fract_x
 _atom_site_fract_y
 _atom_site_fract_z
 _atom_site_occupancy
  Ho  Ho0  1  0.53636700  0.21803000  0.70923600  1.0
  Ho  Ho1  1  0.46363300  0.78197000  0.29076400  1.0
  Ga  Ga2  1  0.84046900  0.20370100  0.11536100  1.0
  Ga  Ga3  1  0.15953100  0.79629900  0.88463900  1.0
  Ag  Ag4  1  0.17342500  0.37546900  0.27768100  1.0
  Ag  Ag5  1  0.82657500  0.62453100  0.72231900  1.0
