# generated using pymatgen
data_HoGe2Pt
_symmetry_space_group_name_H-M   'P 1'
_cell_length_a   4.32280800
_cell_length_b   8.76965600
_cell_length_c   9.60130403
_cell_angle_alpha   117.17378139
_cell_angle_beta   103.00968013
_cell_angle_gamma   90.00000000
_symmetry_Int_Tables_number   1
_chemical_formula_structural   HoGe2Pt
_chemical_formula_sum   'Ho4 Ge8 Pt4'
_cell_volume   313.26828172
_cell_formula_units_Z   4
loop_
 _symmetry_equiv_pos_site_id
 _symmetry_equiv_pos_as_xyz
  1  'x, y, z'
loop_
 _atom_site_type_symbol
 _atom_site_label
 _atom_site_symmetry_multiplicity
 _atom_site_fract_x
 _atom_site_fract_y
 _atom_site_fract_z
 _atom_site_occupancy
  Ho  Ho0  1  0.00000000  0.26414200  0.00000000  1.0
  Ho  Ho1  1  0.79951400  0.29951400  0.59902800  1.0
  Ho  Ho2  1  0.20048600  0.70048600  0.40097200  1.0
  Ho  Ho3  1  1.00000000  0.73585800  1.00000000  1.0
  Ge  Ge4  1  0.20143100  0.35171100  0.40286300  1.0
  Ge  Ge5  1  0.57305300  0.07305300  0.14610600  1.0
  Ge  Ge6  1  0.79856800  0.94884800  0.59713600  1.0
  Ge  Ge7  1  0.79856900  0.64828900  0.59713700  1.0
  Ge  Ge8  1  0.20143200  0.05115200  0.40286400  1.0
  Ge  Ge9  1  0.57388700  0.57388700  0.14777400  1.0
  Ge  Ge10  1  0.42694700  0.92694700  0.85389400  1.0
  Ge  Ge11  1  0.42611300  0.42611300  0.85222600  1.0
  Pt  Pt12  1  0.35271000  0.60357400  0.70542000  1.0
  Pt  Pt13  1  0.64729000  0.39642600  0.29458000  1.0
  Pt  Pt14  1  0.35270900  0.10184500  0.70541900  1.0
  Pt  Pt15  1  0.64729100  0.89815500  0.29458100  1.0
