# generated using pymatgen
data_HoNi4Au
_symmetry_space_group_name_H-M   'P 1'
_cell_length_a   4.92426334
_cell_length_b   4.92426334
_cell_length_c   4.92426334
_cell_angle_alpha   60.00000000
_cell_angle_beta   60.00000000
_cell_angle_gamma   60.00000000
_symmetry_Int_Tables_number   1
_chemical_formula_structural   HoNi4Au
_chemical_formula_sum   'Ho1 Ni4 Au1'
_cell_volume   84.43233743
_cell_formula_units_Z   1
loop_
 _symmetry_equiv_pos_site_id
 _symmetry_equiv_pos_as_xyz
  1  'x, y, z'
loop_
 _atom_site_type_symbol
 _atom_site_label
 _atom_site_symmetry_multiplicity
 _atom_site_fract_x
 _atom_site_fract_y
 _atom_site_fract_z
 _atom_site_occupancy
  Ho  Ho0  1  0.00000000  0.00000000  0.00000000  1.0
  Ni  Ni1  1  0.37517100  0.87448700  0.37517100  1.0
  Ni  Ni2  1  0.37517100  0.37517100  0.37517100  1.0
  Ni  Ni3  1  0.37517100  0.37517100  0.87448700  1.0
  Ni  Ni4  1  0.87448700  0.37517100  0.37517100  1.0
  Au  Au5  1  0.75000000  0.75000000  0.75000000  1.0
