# generated using pymatgen
data_HoOF
_symmetry_space_group_name_H-M   'P 1'
_cell_length_a   3.80302802
_cell_length_b   3.80302802
_cell_length_c   6.69814029
_cell_angle_alpha   73.50767831
_cell_angle_beta   73.50767831
_cell_angle_gamma   59.99999963
_symmetry_Int_Tables_number   1
_chemical_formula_structural   HoOF
_chemical_formula_sum   'Ho2 O2 F2'
_cell_volume   79.26086756
_cell_formula_units_Z   2
loop_
 _symmetry_equiv_pos_site_id
 _symmetry_equiv_pos_as_xyz
  1  'x, y, z'
loop_
 _atom_site_type_symbol
 _atom_site_label
 _atom_site_symmetry_multiplicity
 _atom_site_fract_x
 _atom_site_fract_y
 _atom_site_fract_z
 _atom_site_occupancy
  Ho  Ho0  1  0.25919700  0.25919700  0.22240900  1.0
  Ho  Ho1  1  0.74080300  0.74080300  0.77759100  1.0
  O  O2  1  0.37838000  0.37838000  0.86486000  1.0
  O  O3  1  0.62162000  0.62162000  0.13514000  1.0
  F  F4  1  0.13020300  0.13020300  0.60939100  1.0
  F  F5  1  0.86979700  0.86979700  0.39060900  1.0
