# generated using pymatgen
data_HoVO4
_symmetry_space_group_name_H-M   'P 1'
_cell_length_a   5.08135600
_cell_length_b   5.08135600
_cell_length_c   6.65674969
_cell_angle_alpha   112.43713071
_cell_angle_beta   112.43713071
_cell_angle_gamma   89.99999999
_symmetry_Int_Tables_number   1
_chemical_formula_structural   HoVO4
_chemical_formula_sum   'Ho2 V2 O8'
_cell_volume   144.69031766
_cell_formula_units_Z   2
loop_
 _symmetry_equiv_pos_site_id
 _symmetry_equiv_pos_as_xyz
  1  'x, y, z'
loop_
 _atom_site_type_symbol
 _atom_site_label
 _atom_site_symmetry_multiplicity
 _atom_site_fract_x
 _atom_site_fract_y
 _atom_site_fract_z
 _atom_site_occupancy
  Ho  Ho0  1  0.25000000  0.75000000  0.50000000  1.0
  Ho  Ho1  1  0.50000000  0.50000000  0.00000000  1.0
  V  V2  1  0.75000000  0.25000000  0.50000000  1.0
  V  V3  1  0.00000000  0.00000000  0.00000000  1.0
  O  O4  1  0.51903900  0.91353700  0.33823900  1.0
  O  O5  1  0.81920000  0.42470200  0.33823900  1.0
  O  O6  1  0.23096100  0.33646300  0.16176100  1.0
  O  O7  1  0.93080000  0.82529800  0.16176100  1.0
  O  O8  1  0.17470200  0.76903900  0.83823900  1.0
  O  O9  1  0.66353700  0.06920000  0.83823900  1.0
  O  O10  1  0.57529800  0.48096100  0.66176100  1.0
  O  O11  1  0.08646300  0.18080000  0.66176100  1.0
