# generated using pymatgen
data_HoZrSb
_symmetry_space_group_name_H-M   'P 1'
_cell_length_a   4.26957800
_cell_length_b   4.26957800
_cell_length_c   8.82791268
_cell_angle_alpha   103.99413804
_cell_angle_beta   103.99413805
_cell_angle_gamma   89.99999998
_symmetry_Int_Tables_number   1
_chemical_formula_structural   HoZrSb
_chemical_formula_sum   'Ho2 Zr2 Sb2'
_cell_volume   151.22340605
_cell_formula_units_Z   2
loop_
 _symmetry_equiv_pos_site_id
 _symmetry_equiv_pos_as_xyz
  1  'x, y, z'
loop_
 _atom_site_type_symbol
 _atom_site_label
 _atom_site_symmetry_multiplicity
 _atom_site_fract_x
 _atom_site_fract_y
 _atom_site_fract_z
 _atom_site_occupancy
  Ho  Ho0  1  0.67647800  0.67647800  0.35295600  1.0
  Ho  Ho1  1  0.32352200  0.32352200  0.64704400  1.0
  Zr  Zr2  1  0.50000000  1.00000000  1.00000000  1.0
  Zr  Zr3  1  1.00000000  0.50000000  1.00000000  1.0
  Sb  Sb4  1  0.13401800  0.13401800  0.26803600  1.0
  Sb  Sb5  1  0.86598200  0.86598200  0.73196400  1.0
