# generated using pymatgen
data_In(MoSe)3
_symmetry_space_group_name_H-M   'P 1'
_cell_length_a   4.51345400
_cell_length_b   9.20762200
_cell_length_c   9.20762238
_cell_angle_alpha   119.99999863
_cell_angle_beta   90.00000000
_cell_angle_gamma   90.00000000
_symmetry_Int_Tables_number   1
_chemical_formula_structural   In(MoSe)3
_chemical_formula_sum   'In2 Mo6 Se6'
_cell_volume   331.38636861
_cell_formula_units_Z   2
loop_
 _symmetry_equiv_pos_site_id
 _symmetry_equiv_pos_as_xyz
  1  'x, y, z'
loop_
 _atom_site_type_symbol
 _atom_site_label
 _atom_site_symmetry_multiplicity
 _atom_site_fract_x
 _atom_site_fract_y
 _atom_site_fract_z
 _atom_site_occupancy
  In  In0  1  0.25000000  0.33333333  0.66666667  1.0
  In  In1  1  0.75000000  0.66666667  0.33333333  1.0
  Mo  Mo2  1  0.25000000  0.82542800  0.98265200  1.0
  Mo  Mo3  1  0.25000000  0.15722400  0.17457200  1.0
  Mo  Mo4  1  0.25000000  0.01734800  0.84277600  1.0
  Mo  Mo5  1  0.75000000  0.17457200  0.01734800  1.0
  Mo  Mo6  1  0.75000000  0.84277600  0.82542800  1.0
  Mo  Mo7  1  0.75000000  0.98265200  0.15722400  1.0
  Se  Se8  1  0.25000000  0.68564200  0.65136000  1.0
  Se  Se9  1  0.25000000  0.96571800  0.31435800  1.0
  Se  Se10  1  0.25000000  0.34864000  0.03428200  1.0
  Se  Se11  1  0.75000000  0.31435800  0.34864000  1.0
  Se  Se12  1  0.75000000  0.03428200  0.68564200  1.0
  Se  Se13  1  0.75000000  0.65136000  0.96571800  1.0
