# generated using pymatgen
data_In2CuTe3Cl
_symmetry_space_group_name_H-M   'P 1'
_cell_length_a   6.19148500
_cell_length_b   6.22651196
_cell_length_c   7.44897989
_cell_angle_alpha   65.37444171
_cell_angle_beta   66.97363683
_cell_angle_gamma   89.18109448
_symmetry_Int_Tables_number   1
_chemical_formula_structural   In2CuTe3Cl
_chemical_formula_sum   'In2 Cu1 Te3 Cl1'
_cell_volume   236.42603882
_cell_formula_units_Z   1
loop_
 _symmetry_equiv_pos_site_id
 _symmetry_equiv_pos_as_xyz
  1  'x, y, z'
loop_
 _atom_site_type_symbol
 _atom_site_label
 _atom_site_symmetry_multiplicity
 _atom_site_fract_x
 _atom_site_fract_y
 _atom_site_fract_z
 _atom_site_occupancy
  In  In0  1  0.98066400  0.00729300  0.99567900  1.0
  In  In1  1  0.24441200  0.74420400  0.51670100  1.0
  Cu  Cu2  1  0.53396200  0.47706600  0.98049100  1.0
  Te  Te3  1  0.40809300  0.34536500  0.74816400  1.0
  Te  Te4  1  0.82217100  0.87796500  0.74111100  1.0
  Te  Te5  1  0.61858300  0.14558800  0.28022100  1.0
  Cl  Cl6  1  0.14211500  0.65251800  0.23763300  1.0
