# generated using pymatgen
data_In2CuAgS4
_symmetry_space_group_name_H-M   'P 1'
_cell_length_a   5.74006200
_cell_length_b   5.74006200
_cell_length_c   7.00012192
_cell_angle_alpha   114.20466441
_cell_angle_beta   114.20466441
_cell_angle_gamma   90.00000000
_symmetry_Int_Tables_number   1
_chemical_formula_structural   In2CuAgS4
_chemical_formula_sum   'In2 Cu1 Ag1 S4'
_cell_volume   187.91387567
_cell_formula_units_Z   1
loop_
 _symmetry_equiv_pos_site_id
 _symmetry_equiv_pos_as_xyz
  1  'x, y, z'
loop_
 _atom_site_type_symbol
 _atom_site_label
 _atom_site_symmetry_multiplicity
 _atom_site_fract_x
 _atom_site_fract_y
 _atom_site_fract_z
 _atom_site_occupancy
  In  In0  1  0.75000000  0.25000000  0.50000000  1.0
  In  In1  1  0.50000000  0.50000000  0.00000000  1.0
  Cu  Cu2  1  0.00000000  0.00000000  0.00000000  1.0
  Ag  Ag3  1  0.25000000  0.75000000  0.50000000  1.0
  S  S4  1  0.65096400  0.12316500  0.76615300  1.0
  S  S5  1  0.11518900  0.64298800  0.76615400  1.0
  S  S6  1  0.87683400  0.88481100  0.23384700  1.0
  S  S7  1  0.35701200  0.34903500  0.23384600  1.0
