# generated using pymatgen
data_InCuTe2
_symmetry_space_group_name_H-M   'P 1'
_cell_length_a   4.43818682
_cell_length_b   4.43818682
_cell_length_c   7.73117029
_cell_angle_alpha   73.31964957
_cell_angle_beta   73.31964959
_cell_angle_gamma   60.00000000
_symmetry_Int_Tables_number   1
_chemical_formula_structural   InCuTe2
_chemical_formula_sum   'In1 Cu1 Te2'
_cell_volume   124.42815658
_cell_formula_units_Z   1
loop_
 _symmetry_equiv_pos_site_id
 _symmetry_equiv_pos_as_xyz
  1  'x, y, z'
loop_
 _atom_site_type_symbol
 _atom_site_label
 _atom_site_symmetry_multiplicity
 _atom_site_fract_x
 _atom_site_fract_y
 _atom_site_fract_z
 _atom_site_occupancy
  In  In0  1  0.50863600  0.50863500  0.47409300  1.0
  Cu  Cu1  1  0.99256100  0.99256100  0.02231700  1.0
  Te  Te2  1  0.11364000  0.11364100  0.65907800  1.0
  Te  Te3  1  0.63516300  0.63516200  0.09451200  1.0
