# generated using pymatgen
data_InCu3
_symmetry_space_group_name_H-M   'P 1'
_cell_length_a   4.35532000
_cell_length_b   5.50879000
_cell_length_c   5.50878993
_cell_angle_alpha   120.00000044
_cell_angle_beta   90.00000000
_cell_angle_gamma   90.00000000
_symmetry_Int_Tables_number   1
_chemical_formula_structural   InCu3
_chemical_formula_sum   'In2 Cu6'
_cell_volume   114.46247387
_cell_formula_units_Z   2
loop_
 _symmetry_equiv_pos_site_id
 _symmetry_equiv_pos_as_xyz
  1  'x, y, z'
loop_
 _atom_site_type_symbol
 _atom_site_label
 _atom_site_symmetry_multiplicity
 _atom_site_fract_x
 _atom_site_fract_y
 _atom_site_fract_z
 _atom_site_occupancy
  In  In0  1  0.75000000  0.33333333  0.66666667  1.0
  In  In1  1  0.25000000  0.66666667  0.33333333  1.0
  Cu  Cu2  1  0.25000000  0.15720400  0.31440800  1.0
  Cu  Cu3  1  0.25000000  0.68559200  0.84279600  1.0
  Cu  Cu4  1  0.25000000  0.15720400  0.84279600  1.0
  Cu  Cu5  1  0.75000000  0.84279600  0.68559200  1.0
  Cu  Cu6  1  0.75000000  0.31440800  0.15720400  1.0
  Cu  Cu7  1  0.75000000  0.84279600  0.15720400  1.0
