# generated using pymatgen
data_InGaN2
_symmetry_space_group_name_H-M   'P 1'
_cell_length_a   3.39928800
_cell_length_b   3.39928821
_cell_length_c   5.55161300
_cell_angle_alpha   90.00000000
_cell_angle_beta   90.00000000
_cell_angle_gamma   119.99999800
_symmetry_Int_Tables_number   1
_chemical_formula_structural   InGaN2
_chemical_formula_sum   'In1 Ga1 N2'
_cell_volume   55.55533544
_cell_formula_units_Z   1
loop_
 _symmetry_equiv_pos_site_id
 _symmetry_equiv_pos_as_xyz
  1  'x, y, z'
loop_
 _atom_site_type_symbol
 _atom_site_label
 _atom_site_symmetry_multiplicity
 _atom_site_fract_x
 _atom_site_fract_y
 _atom_site_fract_z
 _atom_site_occupancy
  In  In0  1  0.00000000  0.00000000  0.00159800  1.0
  Ga  Ga1  1  0.33333333  0.66666667  0.50464400  1.0
  N  N2  1  0.33333333  0.66666667  0.85438300  1.0
  N  N3  1  0.00000000  0.00000000  0.39777600  1.0
