# generated using pymatgen
data_InPb2I5
_symmetry_space_group_name_H-M   'P 1'
_cell_length_a   9.01014200
_cell_length_b   10.06066613
_cell_length_c   9.01014200
_cell_angle_alpha   116.60201467
_cell_angle_beta   90.00000000
_cell_angle_gamma   116.60201467
_symmetry_Int_Tables_number   1
_chemical_formula_structural   InPb2I5
_chemical_formula_sum   'In2 Pb4 I10'
_cell_volume   632.10839691
_cell_formula_units_Z   2
loop_
 _symmetry_equiv_pos_site_id
 _symmetry_equiv_pos_as_xyz
  1  'x, y, z'
loop_
 _atom_site_type_symbol
 _atom_site_label
 _atom_site_symmetry_multiplicity
 _atom_site_fract_x
 _atom_site_fract_y
 _atom_site_fract_z
 _atom_site_occupancy
  In  In0  1  0.75000000  0.50000000  0.75000000  1.0
  In  In1  1  0.25000000  0.50000000  0.25000000  1.0
  Pb  Pb2  1  0.33662200  0.00000000  0.16337800  1.0
  Pb  Pb3  1  0.66337800  0.00000000  0.83662200  1.0
  Pb  Pb4  1  0.16337800  0.00000000  0.66337800  1.0
  Pb  Pb5  1  0.83662200  1.00000000  0.33662200  1.0
  I  I6  1  0.70432500  0.72157200  0.51724700  1.0
  I  I7  1  0.29567500  0.27842800  0.48275300  1.0
  I  I8  1  0.01724700  0.72157200  0.20432500  1.0
  I  I9  1  0.98275300  0.27842800  0.79567500  1.0
  I  I10  1  0.00000000  0.00000000  0.00000000  1.0
  I  I11  1  0.50000000  0.00000000  0.50000000  1.0
  I  I12  1  0.48275300  0.27842800  0.98275300  1.0
  I  I13  1  0.51724700  0.72157200  0.01724700  1.0
  I  I14  1  0.79567500  0.27842800  0.29567500  1.0
  I  I15  1  0.20432500  0.72157200  0.70432500  1.0
