# generated using pymatgen
data_InSn2Br5
_symmetry_space_group_name_H-M   'P 1'
_cell_length_a   8.43929800
_cell_length_b   9.51720723
_cell_length_c   8.43929800
_cell_angle_alpha   63.68086863
_cell_angle_beta   89.99999998
_cell_angle_gamma   116.31913135
_symmetry_Int_Tables_number   1
_chemical_formula_structural   InSn2Br5
_chemical_formula_sum   'In2 Sn4 Br10'
_cell_volume   528.03307493
_cell_formula_units_Z   2
loop_
 _symmetry_equiv_pos_site_id
 _symmetry_equiv_pos_as_xyz
  1  'x, y, z'
loop_
 _atom_site_type_symbol
 _atom_site_label
 _atom_site_symmetry_multiplicity
 _atom_site_fract_x
 _atom_site_fract_y
 _atom_site_fract_z
 _atom_site_occupancy
  In  In0  1  0.25000000  0.50000000  0.75000000  1.0
  In  In1  1  0.75000000  0.50000000  0.25000000  1.0
  Sn  Sn2  1  0.17538300  0.00000000  0.32461700  1.0
  Sn  Sn3  1  0.67538300  1.00000000  0.17538300  1.0
  Sn  Sn4  1  0.82461700  0.00000000  0.67538300  1.0
  Sn  Sn5  1  0.32461700  0.00000000  0.82461700  1.0
  Br  Br6  1  0.70342900  0.72947100  0.47395800  1.0
  Br  Br7  1  0.97395800  0.27052900  0.20342900  1.0
  Br  Br8  1  0.29657100  0.27052900  0.52604200  1.0
  Br  Br9  1  0.79657100  0.27052900  0.70342900  1.0
  Br  Br10  1  0.47395800  0.27052900  0.02604200  1.0
  Br  Br11  1  0.20342900  0.72947100  0.29657100  1.0
  Br  Br12  1  0.00000000  0.00000000  0.00000000  1.0
  Br  Br13  1  0.50000000  0.00000000  0.50000000  1.0
  Br  Br14  1  0.02604200  0.72947100  0.79657100  1.0
  Br  Br15  1  0.52604200  0.72947100  0.97395800  1.0
