# generated using pymatgen
data_K(NpSe3)2
_symmetry_space_group_name_H-M   'P 1'
_cell_length_a   4.11777400
_cell_length_b   5.51445000
_cell_length_c   11.42350597
_cell_angle_alpha   103.96706857
_cell_angle_beta   100.38330236
_cell_angle_gamma   90.00000000
_symmetry_Int_Tables_number   1
_chemical_formula_structural   K(NpSe3)2
_chemical_formula_sum   'K1 Np2 Se6'
_cell_volume   247.34780895
_cell_formula_units_Z   1
loop_
 _symmetry_equiv_pos_site_id
 _symmetry_equiv_pos_as_xyz
  1  'x, y, z'
loop_
 _atom_site_type_symbol
 _atom_site_label
 _atom_site_symmetry_multiplicity
 _atom_site_fract_x
 _atom_site_fract_y
 _atom_site_fract_z
 _atom_site_occupancy
  K  K0  1  0.00000000  0.00000000  0.00000000  1.0
  Np  Np1  1  0.81876900  0.31876900  0.63753800  1.0
  Np  Np2  1  0.18123100  0.68123100  0.36246200  1.0
  Se  Se3  1  0.22558800  0.22558800  0.45117600  1.0
  Se  Se4  1  0.77441200  0.77441200  0.54882400  1.0
  Se  Se5  1  0.39412400  0.15388400  0.78824800  1.0
  Se  Se6  1  0.60587600  0.84611600  0.21175200  1.0
  Se  Se7  1  0.60587600  0.36563600  0.21175200  1.0
  Se  Se8  1  0.39412400  0.63436400  0.78824800  1.0
