# generated using pymatgen
data_K(SnSe2)2
_symmetry_space_group_name_H-M   'P 1'
_cell_length_a   6.63515200
_cell_length_b   7.61575201
_cell_length_c   10.26388803
_cell_angle_alpha   88.21231337
_cell_angle_beta   71.14174657
_cell_angle_gamma   84.46154667
_symmetry_Int_Tables_number   1
_chemical_formula_structural   K(SnSe2)2
_chemical_formula_sum   'K2 Sn4 Se8'
_cell_volume   488.51951991
_cell_formula_units_Z   2
loop_
 _symmetry_equiv_pos_site_id
 _symmetry_equiv_pos_as_xyz
  1  'x, y, z'
loop_
 _atom_site_type_symbol
 _atom_site_label
 _atom_site_symmetry_multiplicity
 _atom_site_fract_x
 _atom_site_fract_y
 _atom_site_fract_z
 _atom_site_occupancy
  K  K0  1  0.03074000  0.96565600  0.31406600  1.0
  K  K1  1  0.34480600  0.96565600  0.68593400  1.0
  Sn  Sn2  1  0.58876000  0.37624200  0.00000000  1.0
  Sn  Sn3  1  0.85964300  0.55648400  0.62320000  1.0
  Sn  Sn4  1  0.48284300  0.55648400  0.37680000  1.0
  Sn  Sn5  1  0.68787200  0.86814300  0.00000000  1.0
  Se  Se6  1  0.11375400  0.45969700  0.38122800  1.0
  Se  Se7  1  0.49498200  0.45969700  0.61877200  1.0
  Se  Se8  1  0.36732000  0.12153600  1.00000000  1.0
  Se  Se9  1  0.95606100  0.35187900  0.80488000  1.0
  Se  Se10  1  0.37232000  0.66876900  0.00000000  1.0
  Se  Se11  1  0.53017800  0.87723900  0.32660100  1.0
  Se  Se12  1  0.85677900  0.87723900  0.67339900  1.0
  Se  Se13  1  0.76094100  0.35187900  0.19512000  1.0
