# generated using pymatgen
data_K2CO3
_symmetry_space_group_name_H-M   'P 1'
_cell_length_a   5.72226201
_cell_length_b   5.78953451
_cell_length_c   7.03845283
_cell_angle_alpha   86.11546680
_cell_angle_beta   82.12080807
_cell_angle_gamma   60.38363707
_symmetry_Int_Tables_number   1
_chemical_formula_structural   K2CO3
_chemical_formula_sum   'K4 C2 O6'
_cell_volume   200.80089685
_cell_formula_units_Z   2
loop_
 _symmetry_equiv_pos_site_id
 _symmetry_equiv_pos_as_xyz
  1  'x, y, z'
loop_
 _atom_site_type_symbol
 _atom_site_label
 _atom_site_symmetry_multiplicity
 _atom_site_fract_x
 _atom_site_fract_y
 _atom_site_fract_z
 _atom_site_occupancy
  K  K0  1  0.33354100  0.33291800  0.75000000  1.0
  K  K1  1  0.66645900  0.66708200  0.25000000  1.0
  K  K2  1  0.00000000  0.00000000  0.50000000  1.0
  K  K3  1  0.00000000  0.00000000  0.00000000  1.0
  C  C4  1  0.33177900  0.33644200  0.25000000  1.0
  C  C5  1  0.66822100  0.66355800  0.75000000  1.0
  O  O6  1  0.42123600  0.79288300  0.70484400  1.0
  O  O7  1  0.79786800  0.40426400  0.75000000  1.0
  O  O8  1  0.20213200  0.59573600  0.25000000  1.0
  O  O9  1  0.57876400  0.20711700  0.29515600  1.0
  O  O10  1  0.78588100  0.79288300  0.79515600  1.0
  O  O11  1  0.21411900  0.20711700  0.20484400  1.0
