# generated using pymatgen
data_K2Mn2O3
_symmetry_space_group_name_H-M   'P 1'
_cell_length_a   6.09678349
_cell_length_b   6.48296128
_cell_length_c   6.53983000
_cell_angle_alpha   90.00019875
_cell_angle_beta   90.00045338
_cell_angle_gamma   65.42518419
_symmetry_Int_Tables_number   1
_chemical_formula_structural   K2Mn2O3
_chemical_formula_sum   'K4 Mn4 O6'
_cell_volume   235.07404536
_cell_formula_units_Z   2
loop_
 _symmetry_equiv_pos_site_id
 _symmetry_equiv_pos_as_xyz
  1  'x, y, z'
loop_
 _atom_site_type_symbol
 _atom_site_label
 _atom_site_symmetry_multiplicity
 _atom_site_fract_x
 _atom_site_fract_y
 _atom_site_fract_z
 _atom_site_occupancy
  K  K0  1  0.18339600  0.07231200  0.63829700  1.0
  K  K1  1  0.18339700  0.57231100  0.86175700  1.0
  K  K2  1  0.81660100  0.92768800  0.36175500  1.0
  K  K3  1  0.81660200  0.42768500  0.13830000  1.0
  Mn  Mn4  1  0.66558600  0.56958100  0.61291600  1.0
  Mn  Mn5  1  0.33445800  0.93043300  0.11287000  1.0
  Mn  Mn6  1  0.66554200  0.06964000  0.88700100  1.0
  Mn  Mn7  1  0.33442400  0.43035900  0.38699900  1.0
  O  O8  1  0.00003100  0.49999100  0.50002300  1.0
  O  O9  1  0.99996600  0.00000500  0.00002000  1.0
  O  O10  1  0.41132100  0.71859300  0.36795400  1.0
  O  O11  1  0.58867900  0.78140400  0.86795600  1.0
  O  O12  1  0.58866500  0.28142400  0.63207600  1.0
  O  O13  1  0.41133500  0.21857300  0.13207500  1.0
