# generated using pymatgen
data_K2PbO3
_symmetry_space_group_name_H-M   'P 1'
_cell_length_a   6.10303900
_cell_length_b   6.47207960
_cell_length_c   6.47207960
_cell_angle_alpha   113.60073573
_cell_angle_beta   90.00000000
_cell_angle_gamma   90.00000000
_symmetry_Int_Tables_number   1
_chemical_formula_structural   K2PbO3
_chemical_formula_sum   'K4 Pb2 O6'
_cell_volume   234.26037059
_cell_formula_units_Z   2
loop_
 _symmetry_equiv_pos_site_id
 _symmetry_equiv_pos_as_xyz
  1  'x, y, z'
loop_
 _atom_site_type_symbol
 _atom_site_label
 _atom_site_symmetry_multiplicity
 _atom_site_fract_x
 _atom_site_fract_y
 _atom_site_fract_z
 _atom_site_occupancy
  K  K0  1  0.26554100  0.19708400  0.52254100  1.0
  K  K1  1  0.76554100  0.47745900  0.80291600  1.0
  K  K2  1  0.76554100  0.80291600  0.47745900  1.0
  K  K3  1  0.26554100  0.52254100  0.19708400  1.0
  Pb  Pb4  1  0.72829000  0.09879900  0.09879900  1.0
  Pb  Pb5  1  0.22829000  0.90120100  0.90120100  1.0
  O  O6  1  0.99191900  0.89785300  0.16399300  1.0
  O  O7  1  0.49191900  0.10214700  0.83600700  1.0
  O  O8  1  0.49191900  0.83600700  0.10214700  1.0
  O  O9  1  0.99191900  0.16399300  0.89785300  1.0
  O  O10  1  0.13178800  0.62291700  0.62291700  1.0
  O  O11  1  0.63178800  0.37708300  0.37708300  1.0
