# generated using pymatgen
data_K2PdS2
_symmetry_space_group_name_H-M   'P 1'
_cell_length_a   3.67142000
_cell_length_b   6.24340369
_cell_length_c   6.24340369
_cell_angle_alpha   70.24869006
_cell_angle_beta   72.90098369
_cell_angle_gamma   72.90098369
_symmetry_Int_Tables_number   1
_chemical_formula_structural   K2PdS2
_chemical_formula_sum   'K2 Pd1 S2'
_cell_volume   125.68869646
_cell_formula_units_Z   1
loop_
 _symmetry_equiv_pos_site_id
 _symmetry_equiv_pos_as_xyz
  1  'x, y, z'
loop_
 _atom_site_type_symbol
 _atom_site_label
 _atom_site_symmetry_multiplicity
 _atom_site_fract_x
 _atom_site_fract_y
 _atom_site_fract_z
 _atom_site_occupancy
  K  K0  1  0.19213000  0.30787000  0.30787000  1.0
  K  K1  1  0.80787000  0.69213000  0.69213000  1.0
  Pd  Pd2  1  0.00000000  0.00000000  0.00000000  1.0
  S  S3  1  0.50000000  0.21522400  0.78477600  1.0
  S  S4  1  0.50000000  0.78477600  0.21522400  1.0
