# generated using pymatgen
data_K2Te2Pd
_symmetry_space_group_name_H-M   'P 1'
_cell_length_a   4.07768400
_cell_length_b   6.88125615
_cell_length_c   6.88125615
_cell_angle_alpha   70.99746797
_cell_angle_beta   72.76513940
_cell_angle_gamma   72.76513940
_symmetry_Int_Tables_number   1
_chemical_formula_structural   K2Te2Pd
_chemical_formula_sum   'K2 Te2 Pd1'
_cell_volume   170.04356024
_cell_formula_units_Z   1
loop_
 _symmetry_equiv_pos_site_id
 _symmetry_equiv_pos_as_xyz
  1  'x, y, z'
loop_
 _atom_site_type_symbol
 _atom_site_label
 _atom_site_symmetry_multiplicity
 _atom_site_fract_x
 _atom_site_fract_y
 _atom_site_fract_z
 _atom_site_occupancy
  K  K0  1  0.80073600  0.69926400  0.69926400  1.0
  K  K1  1  0.19926400  0.30073600  0.30073600  1.0
  Te  Te2  1  0.50000000  0.78113700  0.21886300  1.0
  Te  Te3  1  0.50000000  0.21886300  0.78113700  1.0
  Pd  Pd4  1  0.00000000  0.00000000  0.00000000  1.0
