# generated using pymatgen
data_K3HoF6
_symmetry_space_group_name_H-M   'P 1'
_cell_length_a   6.38355500
_cell_length_b   6.59136100
_cell_length_c   9.13477172
_cell_angle_alpha   90.00000000
_cell_angle_beta   89.57974768
_cell_angle_gamma   90.00000000
_symmetry_Int_Tables_number   1
_chemical_formula_structural   K3HoF6
_chemical_formula_sum   'K6 Ho2 F12'
_cell_volume   384.34719749
_cell_formula_units_Z   2
loop_
 _symmetry_equiv_pos_site_id
 _symmetry_equiv_pos_as_xyz
  1  'x, y, z'
loop_
 _atom_site_type_symbol
 _atom_site_label
 _atom_site_symmetry_multiplicity
 _atom_site_fract_x
 _atom_site_fract_y
 _atom_site_fract_z
 _atom_site_occupancy
  K  K0  1  0.50000000  0.50000000  0.00000000  1.0
  K  K1  1  0.00000000  0.00000000  0.50000000  1.0
  K  K2  1  0.48806600  0.04935000  0.24685700  1.0
  K  K3  1  0.51193400  0.95065000  0.75314300  1.0
  K  K4  1  0.01193400  0.54935000  0.25314300  1.0
  K  K5  1  0.98806600  0.45065000  0.74685700  1.0
  Ho  Ho6  1  0.50000000  0.50000000  0.50000000  1.0
  Ho  Ho7  1  0.00000000  0.00000000  0.00000000  1.0
  F  F8  1  0.33126200  0.77258200  0.43550600  1.0
  F  F9  1  0.66873800  0.22741800  0.56449400  1.0
  F  F10  1  0.16873800  0.27258200  0.06449400  1.0
  F  F11  1  0.83126200  0.72741800  0.93550600  1.0
  F  F12  1  0.60626700  0.44976400  0.27619200  1.0
  F  F13  1  0.39373300  0.55023600  0.72380800  1.0
  F  F14  1  0.89373300  0.94976400  0.22380800  1.0
  F  F15  1  0.10626700  0.05023600  0.77619200  1.0
  F  F16  1  0.22167400  0.32443400  0.45249800  1.0
  F  F17  1  0.77832600  0.67556600  0.54750200  1.0
  F  F18  1  0.27832600  0.82443400  0.04750200  1.0
  F  F19  1  0.72167400  0.17556600  0.95249800  1.0
