# generated using pymatgen
data_K3Rb
_symmetry_space_group_name_H-M   'P 1'
_cell_length_a   7.80854000
_cell_length_b   9.59830400
_cell_length_c   9.59830305
_cell_angle_alpha   120.00000327
_cell_angle_beta   90.00000000
_cell_angle_gamma   90.00000000
_symmetry_Int_Tables_number   1
_chemical_formula_structural   K3Rb
_chemical_formula_sum   'K6 Rb2'
_cell_volume   623.00196369
_cell_formula_units_Z   2
loop_
 _symmetry_equiv_pos_site_id
 _symmetry_equiv_pos_as_xyz
  1  'x, y, z'
loop_
 _atom_site_type_symbol
 _atom_site_label
 _atom_site_symmetry_multiplicity
 _atom_site_fract_x
 _atom_site_fract_y
 _atom_site_fract_z
 _atom_site_occupancy
  K  K0  1  0.75000000  0.83478000  0.16522100  1.0
  K  K1  1  0.75000000  0.33044100  0.16522100  1.0
  K  K2  1  0.75000000  0.83478000  0.66956000  1.0
  K  K3  1  0.25000000  0.16522000  0.83477900  1.0
  K  K4  1  0.25000000  0.66955900  0.83477900  1.0
  K  K5  1  0.25000000  0.16522000  0.33044000  1.0
  Rb  Rb6  1  0.25000000  0.66666667  0.33333333  1.0
  Rb  Rb7  1  0.75000000  0.33333333  0.66666667  1.0
