# generated using pymatgen
data_K3RhF6
_symmetry_space_group_name_H-M   'P 1'
_cell_length_a   6.64724966
_cell_length_b   6.76102407
_cell_length_c   6.69614970
_cell_angle_alpha   101.65287721
_cell_angle_beta   106.01520332
_cell_angle_gamma   101.98089184
_symmetry_Int_Tables_number   1
_chemical_formula_structural   K3RhF6
_chemical_formula_sum   'K3 Rh1 F6'
_cell_volume   271.99022690
_cell_formula_units_Z   1
loop_
 _symmetry_equiv_pos_site_id
 _symmetry_equiv_pos_as_xyz
  1  'x, y, z'
loop_
 _atom_site_type_symbol
 _atom_site_label
 _atom_site_symmetry_multiplicity
 _atom_site_fract_x
 _atom_site_fract_y
 _atom_site_fract_z
 _atom_site_occupancy
  K  K0  1  0.00000000  0.50000000  1.00000000  1.0
  K  K1  1  0.50000000  1.00000000  0.00000000  1.0
  K  K2  1  0.00000000  0.00000000  0.50000000  1.0
  Rh  Rh3  1  0.00000000  0.00000000  0.00000000  1.0
  F  F4  1  0.04844700  0.77867800  0.77998000  1.0
  F  F5  1  0.95155300  0.22132200  0.22002000  1.0
  F  F6  1  0.78560400  0.78509100  0.06813700  1.0
  F  F7  1  0.21439600  0.21490900  0.93186300  1.0
  F  F8  1  0.76865400  0.06822600  0.77607700  1.0
  F  F9  1  0.23134600  0.93177400  0.22392300  1.0
