# generated using pymatgen
data_K3Sb2Au3
_symmetry_space_group_name_H-M   'P 1'
_cell_length_a   6.36346463
_cell_length_b   6.36346463
_cell_length_c   8.14549557
_cell_angle_alpha   67.00738915
_cell_angle_beta   67.00738915
_cell_angle_gamma   59.99999351
_symmetry_Int_Tables_number   1
_chemical_formula_structural   K3Sb2Au3
_chemical_formula_sum   'K3 Sb2 Au3'
_cell_volume   254.94432016
_cell_formula_units_Z   1
loop_
 _symmetry_equiv_pos_site_id
 _symmetry_equiv_pos_as_xyz
  1  'x, y, z'
loop_
 _atom_site_type_symbol
 _atom_site_label
 _atom_site_symmetry_multiplicity
 _atom_site_fract_x
 _atom_site_fract_y
 _atom_site_fract_z
 _atom_site_occupancy
  K  K0  1  0.50000000  0.50000000  0.50000000  1.0
  K  K1  1  0.91908900  0.91908900  0.24273300  1.0
  K  K2  1  0.08091100  0.08091100  0.75726700  1.0
  Sb  Sb3  1  0.24224800  0.24224800  0.27325600  1.0
  Sb  Sb4  1  0.75775200  0.75775200  0.72674400  1.0
  Au  Au5  1  0.50000000  0.00000000  0.00000000  1.0
  Au  Au6  1  0.00000000  0.50000000  0.00000000  1.0
  Au  Au7  1  0.50000000  0.50000000  0.00000000  1.0
