# generated using pymatgen
data_K3SbO4
_symmetry_space_group_name_H-M   'P 1'
_cell_length_a   5.78026900
_cell_length_b   6.63620247
_cell_length_c   7.47660100
_cell_angle_alpha   90.00000000
_cell_angle_beta   90.00000000
_cell_angle_gamma   108.48442376
_symmetry_Int_Tables_number   1
_chemical_formula_structural   K3SbO4
_chemical_formula_sum   'K6 Sb2 O8'
_cell_volume   271.99940407
_cell_formula_units_Z   2
loop_
 _symmetry_equiv_pos_site_id
 _symmetry_equiv_pos_as_xyz
  1  'x, y, z'
loop_
 _atom_site_type_symbol
 _atom_site_label
 _atom_site_symmetry_multiplicity
 _atom_site_fract_x
 _atom_site_fract_y
 _atom_site_fract_z
 _atom_site_occupancy
  K  K0  1  0.75000000  0.00000000  0.37460400  1.0
  K  K1  1  0.25000000  1.00000000  0.62539600  1.0
  K  K2  1  0.25000000  0.50000000  0.38868400  1.0
  K  K3  1  0.75000000  0.50000000  0.61131600  1.0
  K  K4  1  0.25000000  1.00000000  0.10879700  1.0
  K  K5  1  0.75000000  1.00000000  0.89120300  1.0
  Sb  Sb6  1  0.75000000  0.50000000  0.11334900  1.0
  Sb  Sb7  1  0.25000000  0.50000000  0.88665100  1.0
  O  O8  1  0.99434700  0.66853500  0.91274200  1.0
  O  O9  1  0.50565300  0.33146500  0.91274200  1.0
  O  O10  1  0.57153100  0.29149500  0.29566500  1.0
  O  O11  1  0.92846900  0.70850500  0.29566500  1.0
  O  O12  1  0.42846900  0.70850500  0.70433500  1.0
  O  O13  1  0.07153100  0.29149500  0.70433500  1.0
  O  O14  1  0.00565300  0.33146500  0.08725800  1.0
  O  O15  1  0.49434700  0.66853500  0.08725800  1.0
