# generated using pymatgen
data_K4CrO4
_symmetry_space_group_name_H-M   'P 1'
_cell_length_a   6.41371030
_cell_length_b   6.45432976
_cell_length_c   9.60790609
_cell_angle_alpha   72.14136212
_cell_angle_beta   79.87187902
_cell_angle_gamma   66.77662235
_symmetry_Int_Tables_number   1
_chemical_formula_structural   K4CrO4
_chemical_formula_sum   'K8 Cr2 O8'
_cell_volume   347.20648614
_cell_formula_units_Z   2
loop_
 _symmetry_equiv_pos_site_id
 _symmetry_equiv_pos_as_xyz
  1  'x, y, z'
loop_
 _atom_site_type_symbol
 _atom_site_label
 _atom_site_symmetry_multiplicity
 _atom_site_fract_x
 _atom_site_fract_y
 _atom_site_fract_z
 _atom_site_occupancy
  K  K0  1  0.77706700  0.03726200  0.38361500  1.0
  K  K1  1  0.22300900  0.96254500  0.61637500  1.0
  K  K2  1  0.75095900  0.58805500  0.16165100  1.0
  K  K3  1  0.24901300  0.41187900  0.83832900  1.0
  K  K4  1  0.24711700  0.76761100  0.02740500  1.0
  K  K5  1  0.75297200  0.23230100  0.97257400  1.0
  K  K6  1  0.27388500  0.51314400  0.43664800  1.0
  K  K7  1  0.72612100  0.48683000  0.56333500  1.0
  Cr  Cr8  1  0.72773900  0.84361700  0.75223600  1.0
  Cr  Cr9  1  0.27220900  0.15656100  0.24778400  1.0
  O  O10  1  0.04491300  0.29355700  0.37244300  1.0
  O  O11  1  0.95502300  0.70648800  0.62758000  1.0
  O  O12  1  0.55558400  0.13754600  0.65466800  1.0
  O  O13  1  0.44432500  0.86255100  0.34532100  1.0
  O  O14  1  0.44933100  0.33480800  0.19218000  1.0
  O  O15  1  0.55071400  0.66526300  0.80781800  1.0
  O  O16  1  0.12924700  0.16348300  0.09865800  1.0
  O  O17  1  0.87077300  0.83650000  0.90138100  1.0
