# generated using pymatgen
data_K4N2O5
_symmetry_space_group_name_H-M   'P 1'
_cell_length_a   5.14541800
_cell_length_b   5.37428000
_cell_length_c   8.82469387
_cell_angle_alpha   107.72822645
_cell_angle_beta   106.94988930
_cell_angle_gamma   90.00000000
_symmetry_Int_Tables_number   1
_chemical_formula_structural   K4N2O5
_chemical_formula_sum   'K4 N2 O5'
_cell_volume   221.28497451
_cell_formula_units_Z   1
loop_
 _symmetry_equiv_pos_site_id
 _symmetry_equiv_pos_as_xyz
  1  'x, y, z'
loop_
 _atom_site_type_symbol
 _atom_site_label
 _atom_site_symmetry_multiplicity
 _atom_site_fract_x
 _atom_site_fract_y
 _atom_site_fract_z
 _atom_site_occupancy
  K  K0  1  1.00000000  0.50000000  1.00000000  1.0
  K  K1  1  0.50000000  0.00000000  0.00000000  1.0
  K  K2  1  0.33509800  0.33509800  0.67019600  1.0
  K  K3  1  0.66490200  0.66490200  0.32980400  1.0
  N  N4  1  0.11960000  0.11960000  0.23920000  1.0
  N  N5  1  0.88040000  0.88040000  0.76080000  1.0
  O  O6  1  0.50000000  0.50000000  0.00000000  1.0
  O  O7  1  0.16173200  0.96008300  0.32346400  1.0
  O  O8  1  0.16173200  0.36338100  0.32346400  1.0
  O  O9  1  0.83826800  0.03991700  0.67653600  1.0
  O  O10  1  0.83826800  0.63661900  0.67653600  1.0
