# generated using pymatgen
data_K4Re2Cl10O
_symmetry_space_group_name_H-M   'P 1'
_cell_length_a   7.17435400
_cell_length_b   7.17435400
_cell_length_c   10.29964035
_cell_angle_alpha   110.38225661
_cell_angle_beta   110.38225661
_cell_angle_gamma   90.00000001
_symmetry_Int_Tables_number   1
_chemical_formula_structural   K4Re2Cl10O
_chemical_formula_sum   'K4 Re2 Cl10 O1'
_cell_volume   461.37090482
_cell_formula_units_Z   1
loop_
 _symmetry_equiv_pos_site_id
 _symmetry_equiv_pos_as_xyz
  1  'x, y, z'
loop_
 _atom_site_type_symbol
 _atom_site_label
 _atom_site_symmetry_multiplicity
 _atom_site_fract_x
 _atom_site_fract_y
 _atom_site_fract_z
 _atom_site_occupancy
  K  K0  1  0.50000000  0.00000000  0.00000000  1.0
  K  K1  1  0.25000000  0.75000000  0.50000000  1.0
  K  K2  1  0.75000000  0.25000000  0.50000000  1.0
  K  K3  1  1.00000000  0.50000000  0.00000000  1.0
  Re  Re4  1  0.10355000  0.10355000  0.20710000  1.0
  Re  Re5  1  0.89645000  0.89645000  0.79290000  1.0
  Cl  Cl6  1  0.12468800  0.12468800  0.77592100  1.0
  Cl  Cl7  1  0.23852200  0.23852200  0.47704400  1.0
  Cl  Cl8  1  0.65123300  0.65123300  0.77592100  1.0
  Cl  Cl9  1  0.87531200  0.34876700  0.22407900  1.0
  Cl  Cl10  1  0.12468800  0.65123300  0.77592100  1.0
  Cl  Cl11  1  0.87531200  0.87531200  0.22407900  1.0
  Cl  Cl12  1  0.34876700  0.87531200  0.22407900  1.0
  Cl  Cl13  1  0.76147800  0.76147800  0.52295600  1.0
  Cl  Cl14  1  0.65123300  0.12468800  0.77592100  1.0
  Cl  Cl15  1  0.34876700  0.34876700  0.22407900  1.0
  O  O16  1  0.00000000  0.00000000  0.00000000  1.0
