# generated using pymatgen
data_K4ZnAs2
_symmetry_space_group_name_H-M   'P 1'
_cell_length_a   5.78442959
_cell_length_b   5.78442959
_cell_length_c   9.64708011
_cell_angle_alpha   72.55428290
_cell_angle_beta   72.55428290
_cell_angle_gamma   60.00000468
_symmetry_Int_Tables_number   1
_chemical_formula_structural   K4ZnAs2
_chemical_formula_sum   'K4 Zn1 As2'
_cell_volume   262.25755060
_cell_formula_units_Z   1
loop_
 _symmetry_equiv_pos_site_id
 _symmetry_equiv_pos_as_xyz
  1  'x, y, z'
loop_
 _atom_site_type_symbol
 _atom_site_label
 _atom_site_symmetry_multiplicity
 _atom_site_fract_x
 _atom_site_fract_y
 _atom_site_fract_z
 _atom_site_occupancy
  K  K0  1  0.38477100  0.38477100  0.84568700  1.0
  K  K1  1  0.20880700  0.20880700  0.37357900  1.0
  K  K2  1  0.79119300  0.79119300  0.62642100  1.0
  K  K3  1  0.61522900  0.61522900  0.15431300  1.0
  Zn  Zn4  1  0.00000000  0.00000000  0.00000000  1.0
  As  As5  1  0.08567800  0.08567800  0.74296600  1.0
  As  As6  1  0.91432200  0.91432200  0.25703400  1.0
