# generated using pymatgen
data_K5Sb4
_symmetry_space_group_name_H-M   'P 1'
_cell_length_a   5.53623800
_cell_length_b   6.86553026
_cell_length_c   11.16903043
_cell_angle_alpha   74.28132333
_cell_angle_beta   75.65034025
_cell_angle_gamma   66.22219375
_symmetry_Int_Tables_number   1
_chemical_formula_structural   K5Sb4
_chemical_formula_sum   'K5 Sb4'
_cell_volume   369.30383729
_cell_formula_units_Z   1
loop_
 _symmetry_equiv_pos_site_id
 _symmetry_equiv_pos_as_xyz
  1  'x, y, z'
loop_
 _atom_site_type_symbol
 _atom_site_label
 _atom_site_symmetry_multiplicity
 _atom_site_fract_x
 _atom_site_fract_y
 _atom_site_fract_z
 _atom_site_occupancy
  K  K0  1  0.89960600  0.80945200  0.39133600  1.0
  K  K1  1  0.10039400  0.19054800  0.60866400  1.0
  K  K2  1  0.24522600  0.34361100  0.16593700  1.0
  K  K3  1  0.75477400  0.65638900  0.83406300  1.0
  K  K4  1  0.00000000  0.00000000  0.00000000  1.0
  Sb  Sb5  1  0.54391200  0.73628000  0.17589600  1.0
  Sb  Sb6  1  0.45608800  0.26372000  0.82410400  1.0
  Sb  Sb7  1  0.60475100  0.39885100  0.39164700  1.0
  Sb  Sb8  1  0.39524900  0.60114900  0.60835300  1.0
