# generated using pymatgen
data_KAgF4
_symmetry_space_group_name_H-M   'P 1'
_cell_length_a   6.05489000
_cell_length_b   6.05489000
_cell_length_c   7.26948593
_cell_angle_alpha   114.61124903
_cell_angle_beta   114.61124902
_cell_angle_gamma   90.00000001
_symmetry_Int_Tables_number   1
_chemical_formula_structural   KAgF4
_chemical_formula_sum   'K2 Ag2 F8'
_cell_volume   215.38418284
_cell_formula_units_Z   2
loop_
 _symmetry_equiv_pos_site_id
 _symmetry_equiv_pos_as_xyz
  1  'x, y, z'
loop_
 _atom_site_type_symbol
 _atom_site_label
 _atom_site_symmetry_multiplicity
 _atom_site_fract_x
 _atom_site_fract_y
 _atom_site_fract_z
 _atom_site_occupancy
  K  K0  1  0.25000000  0.25000000  0.50000000  1.0
  K  K1  1  0.75000000  0.75000000  0.50000000  1.0
  Ag  Ag2  1  0.50000000  1.00000000  1.00000000  1.0
  Ag  Ag3  1  0.00000000  0.50000000  0.00000000  1.0
  F  F4  1  0.45189400  0.28057200  0.23246600  1.0
  F  F5  1  0.21942700  0.04810500  0.76753200  1.0
  F  F6  1  0.54810600  0.71942800  0.76753400  1.0
  F  F7  1  0.04810600  0.54810600  0.76753300  1.0
  F  F8  1  0.78057300  0.95189500  0.23246800  1.0
  F  F9  1  0.28057300  0.78057300  0.23246700  1.0
  F  F10  1  0.95189400  0.45189400  0.23246700  1.0
  F  F11  1  0.71942700  0.21942700  0.76753300  1.0
