# generated using pymatgen
data_KBaSiHO4
_symmetry_space_group_name_H-M   'P 1'
_cell_length_a   5.88279700
_cell_length_b   6.04443954
_cell_length_c   8.13168100
_cell_angle_alpha   90.00000000
_cell_angle_beta   90.00000000
_cell_angle_gamma   118.32402652
_symmetry_Int_Tables_number   1
_chemical_formula_structural   KBaSiHO4
_chemical_formula_sum   'K2 Ba2 Si2 H2 O8'
_cell_volume   254.53078320
_cell_formula_units_Z   2
loop_
 _symmetry_equiv_pos_site_id
 _symmetry_equiv_pos_as_xyz
  1  'x, y, z'
loop_
 _atom_site_type_symbol
 _atom_site_label
 _atom_site_symmetry_multiplicity
 _atom_site_fract_x
 _atom_site_fract_y
 _atom_site_fract_z
 _atom_site_occupancy
  K  K0  1  0.63022800  0.29667400  0.76909400  1.0
  K  K1  1  0.36977200  0.70332600  0.26909400  1.0
  Ba  Ba2  1  0.98613100  0.99335300  0.51696400  1.0
  Ba  Ba3  1  0.01386900  0.00664700  0.01696400  1.0
  Si  Si4  1  0.29893200  0.62130100  0.75454900  1.0
  Si  Si5  1  0.70106800  0.37869900  0.25454900  1.0
  H  H6  1  0.48654000  0.53861800  0.99020800  1.0
  H  H7  1  0.51346000  0.46138200  0.49020800  1.0
  O  O8  1  0.16264300  0.80179000  0.76108500  1.0
  O  O9  1  0.83735700  0.19821000  0.26108500  1.0
  O  O10  1  0.09358700  0.31980200  0.76349300  1.0
  O  O11  1  0.90641300  0.68019800  0.26349300  1.0
  O  O12  1  0.49820500  0.68296500  0.59783400  1.0
  O  O13  1  0.50179500  0.31703500  0.09783400  1.0
  O  O14  1  0.48753800  0.68748400  0.92977500  1.0
  O  O15  1  0.51246200  0.31251600  0.42977500  1.0
