# generated using pymatgen
data_KCrCl3
_symmetry_space_group_name_H-M   'P 1'
_cell_length_a   7.00184001
_cell_length_b   7.00184001
_cell_length_c   7.00183967
_cell_angle_alpha   60.36852347
_cell_angle_beta   60.36852347
_cell_angle_gamma   60.36852729
_symmetry_Int_Tables_number   1
_chemical_formula_structural   KCrCl3
_chemical_formula_sum   'K2 Cr2 Cl6'
_cell_volume   244.75224907
_cell_formula_units_Z   2
loop_
 _symmetry_equiv_pos_site_id
 _symmetry_equiv_pos_as_xyz
  1  'x, y, z'
loop_
 _atom_site_type_symbol
 _atom_site_label
 _atom_site_symmetry_multiplicity
 _atom_site_fract_x
 _atom_site_fract_y
 _atom_site_fract_z
 _atom_site_occupancy
  K  K0  1  0.26065000  0.26065000  0.26065000  1.0
  K  K1  1  0.76065000  0.76065000  0.76065000  1.0
  Cr  Cr2  1  0.00466400  0.00466400  0.00466400  1.0
  Cr  Cr3  1  0.50466400  0.50466400  0.50466400  1.0
  Cl  Cl4  1  0.79911000  0.25410800  0.70996800  1.0
  Cl  Cl5  1  0.70996800  0.79911000  0.25410800  1.0
  Cl  Cl6  1  0.25410800  0.70996800  0.79911000  1.0
  Cl  Cl7  1  0.29911000  0.20996800  0.75410800  1.0
  Cl  Cl8  1  0.20996800  0.75410800  0.29911000  1.0
  Cl  Cl9  1  0.75410800  0.29911000  0.20996800  1.0
