# generated using pymatgen
data_KFeO2
_symmetry_space_group_name_H-M   'P 1'
_cell_length_a   3.21895629
_cell_length_b   6.72060775
_cell_length_c   6.89296831
_cell_angle_alpha   98.27930735
_cell_angle_beta   103.49678813
_cell_angle_gamma   103.85401925
_symmetry_Int_Tables_number   1
_chemical_formula_structural   KFeO2
_chemical_formula_sum   'K2 Fe2 O4'
_cell_volume   137.59008981
_cell_formula_units_Z   2
loop_
 _symmetry_equiv_pos_site_id
 _symmetry_equiv_pos_as_xyz
  1  'x, y, z'
loop_
 _atom_site_type_symbol
 _atom_site_label
 _atom_site_symmetry_multiplicity
 _atom_site_fract_x
 _atom_site_fract_y
 _atom_site_fract_z
 _atom_site_occupancy
  Fe  Fe4  1  0.15623000  0.13341500  0.17910600  1.0
  Fe  Fe5  1  0.84377300  0.86658950  0.82089000  1.0
  K  K0  1  0.51558100  0.34314550  0.68823400  1.0
  K  K2  1  0.48441700  0.65685400  0.31176550  1.0
  O  O8  1  0.96568100  0.83408450  0.09720500  1.0
  O  O10  1  0.03431700  0.16591450  0.90279800  1.0
  O  O12  1  0.21900500  0.75704750  0.68084200  1.0
  O  O14  1  0.78099500  0.24294850  0.31915900  1.0
