# generated using pymatgen
data_KHoBeF6
_symmetry_space_group_name_H-M   'P 1'
_cell_length_a   5.84194100
_cell_length_b   6.42386400
_cell_length_c   7.08613695
_cell_angle_alpha   113.01134676
_cell_angle_beta   90.00000000
_cell_angle_gamma   90.00000000
_symmetry_Int_Tables_number   1
_chemical_formula_structural   KHoBeF6
_chemical_formula_sum   'K2 Ho2 Be2 F12'
_cell_volume   244.76685676
_cell_formula_units_Z   2
loop_
 _symmetry_equiv_pos_site_id
 _symmetry_equiv_pos_as_xyz
  1  'x, y, z'
loop_
 _atom_site_type_symbol
 _atom_site_label
 _atom_site_symmetry_multiplicity
 _atom_site_fract_x
 _atom_site_fract_y
 _atom_site_fract_z
 _atom_site_occupancy
  K  K0  1  0.75000000  0.42860300  0.79544000  1.0
  K  K1  1  0.25000000  0.57139700  0.20456000  1.0
  Ho  Ho2  1  0.75000000  0.11189200  0.18023500  1.0
  Ho  Ho3  1  0.25000000  0.88810800  0.81976500  1.0
  Be  Be4  1  0.75000000  0.73310500  0.46404800  1.0
  Be  Be5  1  0.25000000  0.26689500  0.53595200  1.0
  F  F6  1  0.75000000  0.51138100  0.26263900  1.0
  F  F7  1  0.46553700  0.26726400  0.40454500  1.0
  F  F8  1  0.53446300  0.73273600  0.59545500  1.0
  F  F9  1  0.49847700  0.17820900  0.96523300  1.0
  F  F10  1  0.50152300  0.82179100  0.03476700  1.0
  F  F11  1  0.99847700  0.82179100  0.03476700  1.0
  F  F12  1  0.00152300  0.17820900  0.96523300  1.0
  F  F13  1  0.25000000  0.05721700  0.59116400  1.0
  F  F14  1  0.03446300  0.26726400  0.40454500  1.0
  F  F15  1  0.96553700  0.73273600  0.59545500  1.0
  F  F16  1  0.75000000  0.94278300  0.40883600  1.0
  F  F17  1  0.25000000  0.48861900  0.73736100  1.0
