# generated using pymatgen
data_KMgMn2AlGe3(O5F)2
_symmetry_space_group_name_H-M   'P 1'
_cell_length_a   5.55562579
_cell_length_b   5.55972907
_cell_length_c   10.70177130
_cell_angle_alpha   95.28679128
_cell_angle_beta   95.05276185
_cell_angle_gamma   119.87556530
_symmetry_Int_Tables_number   1
_chemical_formula_structural   KMgMn2AlGe3(O5F)2
_chemical_formula_sum   'K1 Mg1 Mn2 Al1 Ge3 O10 F2'
_cell_volume   281.95046562
_cell_formula_units_Z   1
loop_
 _symmetry_equiv_pos_site_id
 _symmetry_equiv_pos_as_xyz
  1  'x, y, z'
loop_
 _atom_site_type_symbol
 _atom_site_label
 _atom_site_symmetry_multiplicity
 _atom_site_fract_x
 _atom_site_fract_y
 _atom_site_fract_z
 _atom_site_occupancy
  K  K0  1  0.48963200  0.49363100  0.97503700  1.0
  Mg  Mg1  1  0.67243900  0.33123400  0.50591000  1.0
  Mn  Mn2  1  0.99523200  0.99747000  0.51021700  1.0
  Mn  Mn3  1  0.34067000  0.67837300  0.51019600  1.0
  Al  Al4  1  0.75742200  0.09560600  0.77608100  1.0
  Ge  Ge5  1  0.08930300  0.75721500  0.78077200  1.0
  Ge  Ge6  1  0.24386500  0.91399600  0.22658300  1.0
  Ge  Ge7  1  0.90741900  0.24579800  0.22693100  1.0
  O  O8  1  0.01641800  0.01918200  0.83374700  1.0
  O  O9  1  0.98913500  0.99266600  0.16050900  1.0
  O  O10  1  0.44382900  0.87211800  0.83314300  1.0
  O  O11  1  0.87531400  0.44778600  0.84053900  1.0
  O  O12  1  0.55171900  0.11575000  0.15733800  1.0
  O  O13  1  0.11717100  0.55633800  0.16147600  1.0
  O  O14  1  0.70363200  0.04869400  0.60654400  1.0
  O  O15  1  0.02413300  0.68875200  0.60885800  1.0
  O  O16  1  0.30616600  0.97502800  0.39279200  1.0
  O  O17  1  0.95749800  0.29896900  0.39330000  1.0
  F  F18  1  0.38699900  0.36552900  0.59920000  1.0
  F  F19  1  0.63200600  0.60586200  0.40082400  1.0
