# generated using pymatgen
data_KNaCl2
_symmetry_space_group_name_H-M   'P 1'
_cell_length_a   4.24860754
_cell_length_b   4.24860754
_cell_length_c   7.42924687
_cell_angle_alpha   73.38507838
_cell_angle_beta   73.38507838
_cell_angle_gamma   60.00000715
_symmetry_Int_Tables_number   1
_chemical_formula_structural   KNaCl2
_chemical_formula_sum   'K1 Na1 Cl2'
_cell_volume   109.62361556
_cell_formula_units_Z   1
loop_
 _symmetry_equiv_pos_site_id
 _symmetry_equiv_pos_as_xyz
  1  'x, y, z'
loop_
 _atom_site_type_symbol
 _atom_site_label
 _atom_site_symmetry_multiplicity
 _atom_site_fract_x
 _atom_site_fract_y
 _atom_site_fract_z
 _atom_site_occupancy
  K  K0  1  0.50000000  0.50000000  0.50000000  1.0
  Na  Na1  1  0.00000000  0.00000000  0.00000000  1.0
  Cl  Cl2  1  0.25899000  0.25899000  0.22303000  1.0
  Cl  Cl3  1  0.74101000  0.74101000  0.77697000  1.0
