# generated using pymatgen
data_KNaNb2O6
_symmetry_space_group_name_H-M   'P 1'
_cell_length_a   4.07941829
_cell_length_b   5.72081347
_cell_length_c   5.72081347
_cell_angle_alpha   88.79990293
_cell_angle_beta   89.84997997
_cell_angle_gamma   89.84997997
_symmetry_Int_Tables_number   1
_chemical_formula_structural   KNaNb2O6
_chemical_formula_sum   'K1 Na1 Nb2 O6'
_cell_volume   133.47982352
_cell_formula_units_Z   1
loop_
 _symmetry_equiv_pos_site_id
 _symmetry_equiv_pos_as_xyz
  1  'x, y, z'
loop_
 _atom_site_type_symbol
 _atom_site_label
 _atom_site_symmetry_multiplicity
 _atom_site_fract_x
 _atom_site_fract_y
 _atom_site_fract_z
 _atom_site_occupancy
  K  K0  1  0.49833900  0.99947700  0.49947700  1.0
  Na  Na1  1  0.50266800  0.50105900  0.00105900  1.0
  Nb  Nb2  1  0.98557900  0.99238300  0.99199000  1.0
  Nb  Nb3  1  0.98557900  0.49199000  0.49238300  1.0
  O  O4  1  0.02345100  0.76062900  0.26062900  1.0
  O  O5  1  0.02452000  0.26349800  0.76349800  1.0
  O  O6  1  0.01376500  0.75678700  0.76299200  1.0
  O  O7  1  0.01376500  0.26299200  0.25678700  1.0
  O  O8  1  0.51925700  0.00693000  0.00734500  1.0
  O  O9  1  0.51925700  0.50734500  0.50693000  1.0
