# generated using pymatgen
data_KNaSO4
_symmetry_space_group_name_H-M   'P 1'
_cell_length_a   5.69608400
_cell_length_b   5.69608448
_cell_length_c   7.28459000
_cell_angle_alpha   90.00000000
_cell_angle_beta   90.00000000
_cell_angle_gamma   119.99999722
_symmetry_Int_Tables_number   1
_chemical_formula_structural   KNaSO4
_chemical_formula_sum   'K2 Na2 S2 O8'
_cell_volume   204.68620040
_cell_formula_units_Z   2
loop_
 _symmetry_equiv_pos_site_id
 _symmetry_equiv_pos_as_xyz
  1  'x, y, z'
loop_
 _atom_site_type_symbol
 _atom_site_label
 _atom_site_symmetry_multiplicity
 _atom_site_fract_x
 _atom_site_fract_y
 _atom_site_fract_z
 _atom_site_occupancy
  K  K0  1  0.66666667  0.33333333  0.67222500  1.0
  K  K1  1  0.00000000  0.00000000  0.99707300  1.0
  Na  Na2  1  0.00000000  0.00000000  0.49708400  1.0
  Na  Na3  1  0.33333333  0.66666667  0.29710200  1.0
  S  S4  1  0.66666667  0.33333333  0.22877800  1.0
  S  S5  1  0.33333333  0.66666667  0.76727300  1.0
  O  O6  1  0.80931800  0.61863600  0.30125400  1.0
  O  O7  1  0.19094200  0.38188400  0.69537400  1.0
  O  O8  1  0.66666667  0.33333333  0.02708900  1.0
  O  O9  1  0.19094200  0.80905900  0.69537400  1.0
  O  O10  1  0.80931800  0.19068200  0.30125400  1.0
  O  O11  1  0.33333333  0.66666667  0.97049200  1.0
  O  O12  1  0.61811700  0.80905900  0.69537400  1.0
  O  O13  1  0.38136400  0.19068200  0.30125400  1.0
