# generated using pymatgen
data_KNb(AgSe2)2
_symmetry_space_group_name_H-M   'P 1'
_cell_length_a   6.13860000
_cell_length_b   8.32436300
_cell_length_c   10.44310925
_cell_angle_alpha   90.00000000
_cell_angle_beta   107.09199118
_cell_angle_gamma   90.00000000
_symmetry_Int_Tables_number   1
_chemical_formula_structural   KNb(AgSe2)2
_chemical_formula_sum   'K2 Nb2 Ag4 Se8'
_cell_volume   510.07341618
_cell_formula_units_Z   2
loop_
 _symmetry_equiv_pos_site_id
 _symmetry_equiv_pos_as_xyz
  1  'x, y, z'
loop_
 _atom_site_type_symbol
 _atom_site_label
 _atom_site_symmetry_multiplicity
 _atom_site_fract_x
 _atom_site_fract_y
 _atom_site_fract_z
 _atom_site_occupancy
  K  K0  1  0.46716500  0.25000000  0.63592700  1.0
  K  K1  1  0.83123800  0.75000000  0.36407300  1.0
  Nb  Nb2  1  0.77038000  0.75000000  0.77467000  1.0
  Nb  Nb3  1  0.99571000  0.25000000  0.22533000  1.0
  Ag  Ag4  1  0.91875000  0.50000000  0.00000000  1.0
  Ag  Ag5  1  0.91875000  0.00000000  0.00000000  1.0
  Ag  Ag6  1  0.26831000  0.75000000  0.77081600  1.0
  Ag  Ag7  1  0.49749400  0.25000000  0.22918400  1.0
  Se  Se8  1  0.65945100  0.25000000  0.01972500  1.0
  Se  Se9  1  0.98891100  0.99612600  0.76276200  1.0
  Se  Se10  1  0.98891100  0.50387400  0.76276200  1.0
  Se  Se11  1  0.45192300  0.75000000  0.57128000  1.0
  Se  Se12  1  0.88064300  0.25000000  0.42872000  1.0
  Se  Se13  1  0.22614900  0.00387400  0.23723800  1.0
  Se  Se14  1  0.63972600  0.75000000  0.98027500  1.0
  Se  Se15  1  0.22614900  0.49612600  0.23723800  1.0
