# generated using pymatgen
data_KNiSbO4
_symmetry_space_group_name_H-M   'P 1'
_cell_length_a   3.14853900
_cell_length_b   5.28110670
_cell_length_c   6.50737338
_cell_angle_alpha   95.05125874
_cell_angle_beta   104.00217213
_cell_angle_gamma   89.99976896
_symmetry_Int_Tables_number   1
_chemical_formula_structural   KNiSbO4
_chemical_formula_sum   'K1 Ni1 Sb1 O4'
_cell_volume   104.55488620
_cell_formula_units_Z   1
loop_
 _symmetry_equiv_pos_site_id
 _symmetry_equiv_pos_as_xyz
  1  'x, y, z'
loop_
 _atom_site_type_symbol
 _atom_site_label
 _atom_site_symmetry_multiplicity
 _atom_site_fract_x
 _atom_site_fract_y
 _atom_site_fract_z
 _atom_site_occupancy
  K  K0  1  0.74799900  0.58172900  0.49562100  1.0
  Ni  Ni1  1  0.49710300  0.49773300  0.99421400  1.0
  Sb  Sb2  1  0.00105100  0.00283000  0.00220000  1.0
  O  O3  1  0.08087600  0.69914200  0.16164700  1.0
  O  O4  1  0.58629500  0.17674600  0.17262100  1.0
  O  O5  1  0.41349900  0.82354700  0.82714500  1.0
  O  O6  1  0.91902500  0.30022300  0.83825100  1.0
