# generated using pymatgen
data_KRb2W(OF)3
_symmetry_space_group_name_H-M   'P 1'
_cell_length_a   6.42784385
_cell_length_b   6.42784386
_cell_length_c   6.46553491
_cell_angle_alpha   119.47207169
_cell_angle_beta   119.47207169
_cell_angle_gamma   90.58623786
_symmetry_Int_Tables_number   1
_chemical_formula_structural   KRb2W(OF)3
_chemical_formula_sum   'K1 Rb2 W1 O3 F3'
_cell_volume   190.92688417
_cell_formula_units_Z   1
loop_
 _symmetry_equiv_pos_site_id
 _symmetry_equiv_pos_as_xyz
  1  'x, y, z'
loop_
 _atom_site_type_symbol
 _atom_site_label
 _atom_site_symmetry_multiplicity
 _atom_site_fract_x
 _atom_site_fract_y
 _atom_site_fract_z
 _atom_site_occupancy
  K  K0  1  0.50224900  0.50224900  0.00449800  1.0
  Rb  Rb1  1  0.75859800  0.25859800  0.51719600  1.0
  Rb  Rb2  1  0.25859800  0.75859800  0.51719600  1.0
  W  W3  1  0.01675200  0.01675200  0.03350400  1.0
  O  O4  1  0.18656700  0.18656700  0.96678300  1.0
  O  O5  1  0.21308800  0.21308800  0.42617600  1.0
  O  O6  1  0.78021600  0.78021600  0.96678300  1.0
  F  F7  1  0.22116200  0.78128000  0.00244200  1.0
  F  F8  1  0.78149100  0.78149100  0.56298200  1.0
  F  F9  1  0.78128000  0.22116200  0.00244200  1.0
