# generated using pymatgen
data_KRb2Mo(OF)3
_symmetry_space_group_name_H-M   'P 1'
_cell_length_a   6.39253183
_cell_length_b   6.39253183
_cell_length_c   6.43501268
_cell_angle_alpha   118.90294071
_cell_angle_beta   118.90294073
_cell_angle_gamma   91.54267898
_symmetry_Int_Tables_number   1
_chemical_formula_structural   KRb2Mo(OF)3
_chemical_formula_sum   'K1 Rb2 Mo1 O3 F3'
_cell_volume   189.53192708
_cell_formula_units_Z   1
loop_
 _symmetry_equiv_pos_site_id
 _symmetry_equiv_pos_as_xyz
  1  'x, y, z'
loop_
 _atom_site_type_symbol
 _atom_site_label
 _atom_site_symmetry_multiplicity
 _atom_site_fract_x
 _atom_site_fract_y
 _atom_site_fract_z
 _atom_site_occupancy
  K  K0  1  0.50391900  0.50391900  0.00783800  1.0
  Rb  Rb1  1  0.75996600  0.25996600  0.51993200  1.0
  Rb  Rb2  1  0.25996600  0.75996600  0.51993200  1.0
  Mo  Mo3  1  0.01906700  0.01906700  0.03813400  1.0
  O  O4  1  0.18050100  0.18050100  0.95875700  1.0
  O  O5  1  0.21128700  0.21128700  0.42257400  1.0
  O  O6  1  0.77825600  0.77825600  0.95875700  1.0
  F  F7  1  0.22577900  0.78316800  0.00894700  1.0
  F  F8  1  0.77809200  0.77809200  0.55618400  1.0
  F  F9  1  0.78316800  0.22577900  0.00894700  1.0
