# generated using pymatgen
data_KTiPSe5
_symmetry_space_group_name_H-M   'P 1'
_cell_length_a   6.90934136
_cell_length_b   7.48534600
_cell_length_c   10.11478521
_cell_angle_alpha   68.28314817
_cell_angle_beta   81.72490360
_cell_angle_gamma   90.00000000
_symmetry_Int_Tables_number   1
_chemical_formula_structural   KTiPSe5
_chemical_formula_sum   'K2 Ti2 P2 Se10'
_cell_volume   480.12769830
_cell_formula_units_Z   2
loop_
 _symmetry_equiv_pos_site_id
 _symmetry_equiv_pos_as_xyz
  1  'x, y, z'
loop_
 _atom_site_type_symbol
 _atom_site_label
 _atom_site_symmetry_multiplicity
 _atom_site_fract_x
 _atom_site_fract_y
 _atom_site_fract_z
 _atom_site_occupancy
  K  K0  1  0.76650400  0.26874700  0.46250600  1.0
  K  K1  1  0.23349600  0.73125300  0.53749400  1.0
  Ti  Ti2  1  1.00000000  0.72315700  0.00000000  1.0
  Ti  Ti3  1  1.00000000  0.27684300  0.00000000  1.0
  P  P4  1  0.21130700  0.13609300  0.72781400  1.0
  P  P5  1  0.78869300  0.86390700  0.27218600  1.0
  Se  Se6  1  0.10618900  0.91650300  0.16699400  1.0
  Se  Se7  1  0.18293200  0.44177200  0.11645600  1.0
  Se  Se8  1  0.67266700  0.15450100  0.17032800  1.0
  Se  Se9  1  0.89381100  0.08349700  0.83300600  1.0
  Se  Se10  1  0.32733300  0.84549900  0.82967200  1.0
  Se  Se11  1  0.67266700  0.67517100  0.17032800  1.0
  Se  Se12  1  0.81706800  0.55822800  0.88354400  1.0
  Se  Se13  1  0.25758300  0.25322400  0.49355200  1.0
  Se  Se14  1  0.32733300  0.32482900  0.82967200  1.0
  Se  Se15  1  0.74241700  0.74677600  0.50644800  1.0
