# generated using pymatgen
data_KTlCl4
_symmetry_space_group_name_H-M   'P 1'
_cell_length_a   7.09270400
_cell_length_b   7.09270400
_cell_length_c   9.36670277
_cell_angle_alpha   112.24777241
_cell_angle_beta   112.24777241
_cell_angle_gamma   89.99999999
_symmetry_Int_Tables_number   1
_chemical_formula_structural   KTlCl4
_chemical_formula_sum   'K2 Tl2 Cl8'
_cell_volume   397.96788671
_cell_formula_units_Z   2
loop_
 _symmetry_equiv_pos_site_id
 _symmetry_equiv_pos_as_xyz
  1  'x, y, z'
loop_
 _atom_site_type_symbol
 _atom_site_label
 _atom_site_symmetry_multiplicity
 _atom_site_fract_x
 _atom_site_fract_y
 _atom_site_fract_z
 _atom_site_occupancy
  K  K0  1  0.25000000  0.75000000  0.50000000  1.0
  K  K1  1  0.50000000  0.50000000  0.00000000  1.0
  Tl  Tl2  1  0.00000000  0.00000000  0.00000000  1.0
  Tl  Tl3  1  0.75000000  0.25000000  0.50000000  1.0
  Cl  Cl4  1  0.24596900  0.83745500  0.16905800  1.0
  Cl  Cl5  1  0.08160300  0.49596900  0.66905900  1.0
  Cl  Cl6  1  0.50403100  0.41254500  0.33094200  1.0
  Cl  Cl7  1  0.16254400  0.07691000  0.83094100  1.0
  Cl  Cl8  1  0.58745600  0.17309000  0.66905900  1.0
  Cl  Cl9  1  0.82691000  0.91839600  0.33094000  1.0
  Cl  Cl10  1  0.66839700  0.75403100  0.83094100  1.0
  Cl  Cl11  1  0.92309000  0.33160400  0.16906000  1.0
