# generated using pymatgen
data_KV2AgO6
_symmetry_space_group_name_H-M   'P 1'
_cell_length_a   5.90457238
_cell_length_b   7.44997499
_cell_length_c   7.44997499
_cell_angle_alpha   85.51389708
_cell_angle_beta   79.77023346
_cell_angle_gamma   79.77023346
_symmetry_Int_Tables_number   1
_chemical_formula_structural   KV2AgO6
_chemical_formula_sum   'K2 V4 Ag2 O12'
_cell_volume   317.01119568
_cell_formula_units_Z   2
loop_
 _symmetry_equiv_pos_site_id
 _symmetry_equiv_pos_as_xyz
  1  'x, y, z'
loop_
 _atom_site_type_symbol
 _atom_site_label
 _atom_site_symmetry_multiplicity
 _atom_site_fract_x
 _atom_site_fract_y
 _atom_site_fract_z
 _atom_site_occupancy
  K  K0  1  0.25000000  0.80355500  0.19644500  1.0
  K  K1  1  0.75000000  0.19644500  0.80355500  1.0
  V  V2  1  0.26872100  0.87610200  0.70237000  1.0
  V  V3  1  0.73127900  0.12389800  0.29763000  1.0
  V  V4  1  0.23127900  0.29763000  0.12389800  1.0
  V  V5  1  0.76872100  0.70237000  0.87610200  1.0
  Ag  Ag6  1  0.25000000  0.40697300  0.59302700  1.0
  Ag  Ag7  1  0.75000000  0.59302700  0.40697300  1.0
  O  O8  1  0.49042700  0.13628200  0.17035000  1.0
  O  O9  1  0.50957300  0.86371800  0.82965000  1.0
  O  O10  1  0.00957300  0.82965000  0.86371800  1.0
  O  O11  1  0.99042700  0.17035000  0.13628200  1.0
  O  O12  1  0.34128000  0.71901800  0.54057400  1.0
  O  O13  1  0.65872000  0.28098200  0.45942600  1.0
  O  O14  1  0.15872000  0.45942600  0.28098200  1.0
  O  O15  1  0.84128000  0.54057400  0.71901800  1.0
  O  O16  1  0.20125500  0.08719900  0.60953200  1.0
  O  O17  1  0.79874500  0.91280100  0.39046800  1.0
  O  O18  1  0.29874500  0.39046800  0.91280100  1.0
  O  O19  1  0.70125500  0.60953200  0.08719900  1.0
