# generated using pymatgen
data_La(BOs)2
_symmetry_space_group_name_H-M   'P 1'
_cell_length_a   5.66167687
_cell_length_b   5.66167687
_cell_length_c   6.08902539
_cell_angle_alpha   108.38034515
_cell_angle_beta   108.38034517
_cell_angle_gamma   108.76886072
_symmetry_Int_Tables_number   1
_chemical_formula_structural   La(BOs)2
_chemical_formula_sum   'La2 B4 Os4'
_cell_volume   155.36662535
_cell_formula_units_Z   2
loop_
 _symmetry_equiv_pos_site_id
 _symmetry_equiv_pos_as_xyz
  1  'x, y, z'
loop_
 _atom_site_type_symbol
 _atom_site_label
 _atom_site_symmetry_multiplicity
 _atom_site_fract_x
 _atom_site_fract_y
 _atom_site_fract_z
 _atom_site_occupancy
  La  La0  1  0.00000000  0.00000000  0.00000000  1.0
  La  La1  1  0.25000000  0.75000000  0.50000000  1.0
  B  B2  1  0.31833700  0.68166300  0.00000000  1.0
  B  B3  1  0.68166300  0.31833700  0.00000000  1.0
  B  B4  1  0.56833700  0.43166300  0.50000000  1.0
  B  B5  1  0.93166300  0.06833700  0.50000000  1.0
  Os  Os6  1  0.63623800  0.63623800  0.27247600  1.0
  Os  Os7  1  0.36376200  0.36376200  0.72752400  1.0
  Os  Os8  1  0.61376200  0.11376200  0.22752400  1.0
  Os  Os9  1  0.88623800  0.38623800  0.77247600  1.0
