# generated using pymatgen
data_La2MnCoO6
_symmetry_space_group_name_H-M   'P 1'
_cell_length_a   5.55215000
_cell_length_b   5.58289100
_cell_length_c   7.88080422
_cell_angle_alpha   89.94825003
_cell_angle_beta   90.00000000
_cell_angle_gamma   90.00000000
_symmetry_Int_Tables_number   1
_chemical_formula_structural   La2MnCoO6
_chemical_formula_sum   'La4 Mn2 Co2 O12'
_cell_volume   244.28156901
_cell_formula_units_Z   2
loop_
 _symmetry_equiv_pos_site_id
 _symmetry_equiv_pos_as_xyz
  1  'x, y, z'
loop_
 _atom_site_type_symbol
 _atom_site_label
 _atom_site_symmetry_multiplicity
 _atom_site_fract_x
 _atom_site_fract_y
 _atom_site_fract_z
 _atom_site_occupancy
  La  La0  1  0.46830100  0.49326400  0.24909000  1.0
  La  La1  1  0.03169900  0.99326400  0.74909000  1.0
  La  La2  1  0.53169900  0.50673600  0.75091000  1.0
  La  La3  1  0.96830100  0.00673600  0.25091000  1.0
  Mn  Mn4  1  0.00000000  0.50000000  0.50000000  1.0
  Mn  Mn5  1  0.50000000  1.00000000  0.00000000  1.0
  Co  Co6  1  0.50000000  0.00000000  0.50000000  1.0
  Co  Co7  1  1.00000000  0.50000000  1.00000000  1.0
  O  O8  1  0.01069600  0.57516800  0.25776500  1.0
  O  O9  1  0.48930400  0.07516800  0.75776500  1.0
  O  O10  1  0.98930400  0.42483200  0.74223500  1.0
  O  O11  1  0.51069600  0.92483200  0.24223500  1.0
  O  O12  1  0.21049200  0.22587100  0.45978100  1.0
  O  O13  1  0.28950800  0.72587100  0.95978100  1.0
  O  O14  1  0.78950800  0.77412900  0.54021900  1.0
  O  O15  1  0.71049200  0.27412900  0.04021900  1.0
  O  O16  1  0.22246600  0.20924700  0.04027800  1.0
  O  O17  1  0.27753400  0.70924700  0.54027800  1.0
  O  O18  1  0.77753400  0.79075300  0.95972200  1.0
  O  O19  1  0.72246600  0.29075300  0.45972200  1.0
