# generated using pymatgen
data_La2NiO4
_symmetry_space_group_name_H-M   'P 1'
_cell_length_a   5.51165200
_cell_length_b   5.67646700
_cell_length_c   6.80223975
_cell_angle_alpha   89.99941545
_cell_angle_beta   66.10143256
_cell_angle_gamma   89.99891409
_symmetry_Int_Tables_number   1
_chemical_formula_structural   La2NiO4
_chemical_formula_sum   'La4 Ni2 O8'
_cell_volume   194.57341461
_cell_formula_units_Z   2
loop_
 _symmetry_equiv_pos_site_id
 _symmetry_equiv_pos_as_xyz
  1  'x, y, z'
loop_
 _atom_site_type_symbol
 _atom_site_label
 _atom_site_symmetry_multiplicity
 _atom_site_fract_x
 _atom_site_fract_y
 _atom_site_fract_z
 _atom_site_occupancy
  La  La0  1  0.36281000  0.01496600  0.27402600  1.0
  La  La1  1  0.63680700  0.98501800  0.72629100  1.0
  La  La2  1  0.86293300  0.48491000  0.27391100  1.0
  La  La3  1  0.13689700  0.51487500  0.72616900  1.0
  Ni  Ni4  1  0.50076800  0.50023300  0.99857500  1.0
  Ni  Ni5  1  0.00030400  0.00018700  0.99981000  1.0
  O  O6  1  0.26621700  0.25018700  0.96811300  1.0
  O  O7  1  0.23381400  0.74987900  0.03209800  1.0
  O  O8  1  0.73413400  0.75021300  0.03213100  1.0
  O  O9  1  0.76589200  0.24992900  0.96807000  1.0
  O  O10  1  0.17914500  0.93679900  0.64142400  1.0
  O  O11  1  0.82066600  0.06312500  0.35895000  1.0
  O  O12  1  0.67906300  0.56301600  0.64145100  1.0
  O  O13  1  0.32054900  0.43666400  0.35898300  1.0
