# generated using pymatgen
data_La2Si5Rh3
_symmetry_space_group_name_H-M   'P 1'
_cell_length_a   5.92313200
_cell_length_b   8.33743280
_cell_length_c   8.33743280
_cell_angle_alpha   73.93631502
_cell_angle_beta   69.19348988
_cell_angle_gamma   69.19348989
_symmetry_Int_Tables_number   1
_chemical_formula_structural   La2Si5Rh3
_chemical_formula_sum   'La4 Si10 Rh6'
_cell_volume   354.40384962
_cell_formula_units_Z   2
loop_
 _symmetry_equiv_pos_site_id
 _symmetry_equiv_pos_as_xyz
  1  'x, y, z'
loop_
 _atom_site_type_symbol
 _atom_site_label
 _atom_site_symmetry_multiplicity
 _atom_site_fract_x
 _atom_site_fract_y
 _atom_site_fract_z
 _atom_site_occupancy
  La  La0  1  0.86921900  0.89801000  0.36355200  1.0
  La  La1  1  0.13078100  0.10199000  0.63644800  1.0
  La  La2  1  0.63078100  0.63644800  0.10199000  1.0
  La  La3  1  0.36921900  0.36355200  0.89801000  1.0
  Si  Si4  1  0.75000000  0.00000000  1.00000000  1.0
  Si  Si5  1  0.25000000  1.00000000  1.00000000  1.0
  Si  Si6  1  0.02518900  0.72481100  0.72481100  1.0
  Si  Si7  1  0.47481100  0.27518900  0.27518900  1.0
  Si  Si8  1  0.97481100  0.27518900  0.27518900  1.0
  Si  Si9  1  0.52518900  0.72481100  0.72481100  1.0
  Si  Si10  1  0.60768200  0.24143900  0.54319700  1.0
  Si  Si11  1  0.10768200  0.54319700  0.24143900  1.0
  Si  Si12  1  0.89231800  0.45680300  0.75856100  1.0
  Si  Si13  1  0.39231800  0.75856100  0.45680300  1.0
  Rh  Rh14  1  0.13853800  0.75214700  0.97077800  1.0
  Rh  Rh15  1  0.25000000  0.50000000  0.50000000  1.0
  Rh  Rh16  1  0.63853700  0.97077900  0.75214700  1.0
  Rh  Rh17  1  0.36146300  0.02922100  0.24785300  1.0
  Rh  Rh18  1  0.86146200  0.24785300  0.02922200  1.0
  Rh  Rh19  1  0.75000000  0.50000000  0.50000000  1.0
