# generated using pymatgen
data_La3(ZnPt)4
_symmetry_space_group_name_H-M   'P 1'
_cell_length_a   4.17646400
_cell_length_b   7.57229600
_cell_length_c   8.43334768
_cell_angle_alpha   116.67631080
_cell_angle_beta   104.33648533
_cell_angle_gamma   90.00000000
_symmetry_Int_Tables_number   1
_chemical_formula_structural   La3(ZnPt)4
_chemical_formula_sum   'La3 Zn4 Pt4'
_cell_volume   228.98579419
_cell_formula_units_Z   1
loop_
 _symmetry_equiv_pos_site_id
 _symmetry_equiv_pos_as_xyz
  1  'x, y, z'
loop_
 _atom_site_type_symbol
 _atom_site_label
 _atom_site_symmetry_multiplicity
 _atom_site_fract_x
 _atom_site_fract_y
 _atom_site_fract_z
 _atom_site_occupancy
  La  La0  1  1.00000000  0.50000000  1.00000000  1.0
  La  La1  1  0.12818600  0.12818600  0.25637200  1.0
  La  La2  1  0.87181400  0.87181400  0.74362800  1.0
  Zn  Zn3  1  0.32617100  0.51919000  0.65234200  1.0
  Zn  Zn4  1  0.32617100  0.13315200  0.65234200  1.0
  Zn  Zn5  1  0.67382900  0.86684800  0.34765800  1.0
  Zn  Zn6  1  0.67382900  0.48081000  0.34765800  1.0
  Pt  Pt7  1  0.21751900  0.71751900  0.43503800  1.0
  Pt  Pt8  1  0.78248100  0.28248100  0.56496200  1.0
  Pt  Pt9  1  0.50000000  0.19845900  0.00000000  1.0
  Pt  Pt10  1  0.50000000  0.80154100  0.00000000  1.0
