# generated using pymatgen
data_La3(GeRh)4
_symmetry_space_group_name_H-M   'P 1'
_cell_length_a   4.19234000
_cell_length_b   4.27594400
_cell_length_c   13.14083270
_cell_angle_alpha   99.36346546
_cell_angle_beta   99.17879070
_cell_angle_gamma   90.00000001
_symmetry_Int_Tables_number   1
_chemical_formula_structural   La3(GeRh)4
_chemical_formula_sum   'La3 Ge4 Rh4'
_cell_volume   229.36909719
_cell_formula_units_Z   1
loop_
 _symmetry_equiv_pos_site_id
 _symmetry_equiv_pos_as_xyz
  1  'x, y, z'
loop_
 _atom_site_type_symbol
 _atom_site_label
 _atom_site_symmetry_multiplicity
 _atom_site_fract_x
 _atom_site_fract_y
 _atom_site_fract_z
 _atom_site_occupancy
  La  La0  1  0.14459500  0.64459500  0.28919000  1.0
  La  La1  1  0.85540500  0.35540500  0.71081000  1.0
  La  La2  1  0.00000000  0.00000000  0.00000000  1.0
  Ge  Ge3  1  0.54917700  0.54917700  0.09835400  1.0
  Ge  Ge4  1  0.45082300  0.45082300  0.90164600  1.0
  Ge  Ge5  1  0.69821600  0.19821600  0.39643200  1.0
  Ge  Ge6  1  0.30178400  0.80178400  0.60356800  1.0
  Rh  Rh7  1  0.60012700  0.10012700  0.20025400  1.0
  Rh  Rh8  1  0.74991500  0.74991500  0.49983000  1.0
  Rh  Rh9  1  0.25008500  0.25008500  0.50017000  1.0
  Rh  Rh10  1  0.39987300  0.89987300  0.79974600  1.0
