# generated using pymatgen
data_La3FeO6
_symmetry_space_group_name_H-M   'P 1'
_cell_length_a   5.73726800
_cell_length_b   7.58701475
_cell_length_c   7.58701475
_cell_angle_alpha   103.01653316
_cell_angle_beta   90.00000000
_cell_angle_gamma   90.00000000
_symmetry_Int_Tables_number   1
_chemical_formula_structural   La3FeO6
_chemical_formula_sum   'La6 Fe2 O12'
_cell_volume   321.76735128
_cell_formula_units_Z   2
loop_
 _symmetry_equiv_pos_site_id
 _symmetry_equiv_pos_as_xyz
  1  'x, y, z'
loop_
 _atom_site_type_symbol
 _atom_site_label
 _atom_site_symmetry_multiplicity
 _atom_site_fract_x
 _atom_site_fract_y
 _atom_site_fract_z
 _atom_site_occupancy
  La  La0  1  0.46434800  0.19850700  0.41309000  1.0
  La  La1  1  0.46434800  0.58691000  0.80149300  1.0
  La  La2  1  0.96434800  0.80149300  0.58691000  1.0
  La  La3  1  0.96434800  0.41309000  0.19850700  1.0
  La  La4  1  0.92733200  0.89505400  0.10494600  1.0
  La  La5  1  0.42733200  0.10494600  0.89505400  1.0
  Fe  Fe6  1  0.49964700  0.69190700  0.30809300  1.0
  Fe  Fe7  1  0.99964700  0.30809300  0.69190700  1.0
  O  O8  1  0.19894600  0.14796800  0.17088100  1.0
  O  O9  1  0.19894600  0.82911900  0.85203200  1.0
  O  O10  1  0.69894600  0.85203200  0.82911900  1.0
  O  O11  1  0.69894600  0.17088100  0.14796800  1.0
  O  O12  1  0.16806800  0.08621000  0.60787800  1.0
  O  O13  1  0.16806800  0.39212200  0.91379000  1.0
  O  O14  1  0.66806800  0.91379000  0.39212200  1.0
  O  O15  1  0.66806800  0.60787800  0.08621000  1.0
  O  O16  1  0.13092300  0.45590900  0.54409100  1.0
  O  O17  1  0.63092300  0.54409100  0.45590900  1.0
  O  O18  1  0.16925400  0.71437800  0.28562200  1.0
  O  O19  1  0.66925400  0.28562200  0.71437800  1.0
