# generated using pymatgen
data_La3Hg
_symmetry_space_group_name_H-M   'P 1'
_cell_length_a   5.60887500
_cell_length_b   7.25762000
_cell_length_c   7.25761975
_cell_angle_alpha   120.00000115
_cell_angle_beta   90.00000000
_cell_angle_gamma   90.00000000
_symmetry_Int_Tables_number   1
_chemical_formula_structural   La3Hg
_chemical_formula_sum   'La6 Hg2'
_cell_volume   255.85553928
_cell_formula_units_Z   2
loop_
 _symmetry_equiv_pos_site_id
 _symmetry_equiv_pos_as_xyz
  1  'x, y, z'
loop_
 _atom_site_type_symbol
 _atom_site_label
 _atom_site_symmetry_multiplicity
 _atom_site_fract_x
 _atom_site_fract_y
 _atom_site_fract_z
 _atom_site_occupancy
  La  La0  1  0.75000000  0.82323700  0.17676300  1.0
  La  La1  1  0.75000000  0.35352600  0.17676300  1.0
  La  La2  1  0.75000000  0.82323700  0.64647400  1.0
  La  La3  1  0.25000000  0.17676300  0.82323700  1.0
  La  La4  1  0.25000000  0.64647400  0.82323700  1.0
  La  La5  1  0.25000000  0.17676300  0.35352600  1.0
  Hg  Hg6  1  0.25000000  0.66666667  0.33333333  1.0
  Hg  Hg7  1  0.75000000  0.33333333  0.66666667  1.0
