# generated using pymatgen
data_La3Pd4
_symmetry_space_group_name_H-M   'P 1'
_cell_length_a   5.88305480
_cell_length_b   8.31671797
_cell_length_c   8.31671797
_cell_angle_alpha   114.62030822
_cell_angle_beta   103.63832869
_cell_angle_gamma   103.63832869
_symmetry_Int_Tables_number   1
_chemical_formula_structural   La3Pd4
_chemical_formula_sum   'La6 Pd8'
_cell_volume   332.80846732
_cell_formula_units_Z   2
loop_
 _symmetry_equiv_pos_site_id
 _symmetry_equiv_pos_as_xyz
  1  'x, y, z'
loop_
 _atom_site_type_symbol
 _atom_site_label
 _atom_site_symmetry_multiplicity
 _atom_site_fract_x
 _atom_site_fract_y
 _atom_site_fract_z
 _atom_site_occupancy
  La  La0  1  0.27985000  0.87435300  0.25111000  1.0
  La  La1  1  0.40549700  0.37675700  0.12564700  1.0
  La  La2  1  0.02874000  0.74889000  0.62324300  1.0
  La  La3  1  0.72015000  0.12564700  0.74889000  1.0
  La  La4  1  0.59450300  0.62324300  0.87435300  1.0
  La  La5  1  0.97126000  0.25111000  0.37675700  1.0
  Pd  Pd6  1  0.00000000  0.00000000  0.00000000  1.0
  Pd  Pd7  1  0.50000000  1.00000000  1.00000000  1.0
  Pd  Pd8  1  0.55339600  0.33133500  0.49493400  1.0
  Pd  Pd9  1  0.22206100  0.16359900  0.66866500  1.0
  Pd  Pd10  1  0.05846200  0.50506600  0.83640100  1.0
  Pd  Pd11  1  0.44660400  0.66866500  0.50506600  1.0
  Pd  Pd12  1  0.77793900  0.83640100  0.33133500  1.0
  Pd  Pd13  1  0.94153800  0.49493400  0.16359900  1.0
