# generated using pymatgen
data_La4SnSb2
_symmetry_space_group_name_H-M   'P 1'
_cell_length_a   8.41094771
_cell_length_b   8.41094771
_cell_length_c   8.41094771
_cell_angle_alpha   70.74430753
_cell_angle_beta   70.42090791
_cell_angle_gamma   109.57909209
_symmetry_Int_Tables_number   1
_chemical_formula_structural   La4SnSb2
_chemical_formula_sum   'La8 Sn2 Sb4'
_cell_volume   458.04516299
_cell_formula_units_Z   2
loop_
 _symmetry_equiv_pos_site_id
 _symmetry_equiv_pos_as_xyz
  1  'x, y, z'
loop_
 _atom_site_type_symbol
 _atom_site_label
 _atom_site_symmetry_multiplicity
 _atom_site_fract_x
 _atom_site_fract_y
 _atom_site_fract_z
 _atom_site_occupancy
  La  La0  1  0.25068100  0.87536700  0.72944600  1.0
  La  La1  1  0.74931900  0.01987300  0.37531400  1.0
  La  La2  1  0.10481300  0.23012700  0.52055400  1.0
  La  La3  1  0.89518700  0.37463300  0.87468600  1.0
  La  La4  1  0.75068100  0.52055400  0.37463300  1.0
  La  La5  1  0.24931900  0.87468600  0.23012700  1.0
  La  La6  1  0.60481300  0.72944600  0.01987300  1.0
  La  La7  1  0.39518700  0.37531400  0.87536700  1.0
  Sn  Sn8  1  0.50000000  0.25000000  0.25000000  1.0
  Sn  Sn9  1  0.00000000  0.00000000  0.00000000  1.0
  Sb  Sb10  1  0.62534100  0.12500000  0.74965900  1.0
  Sb  Sb11  1  0.37465900  0.62500000  0.50034100  1.0
  Sb  Sb12  1  0.87465900  0.74965900  0.62500000  1.0
  Sb  Sb13  1  0.12534100  0.50034100  0.12500000  1.0
