# generated using pymatgen
data_La5TlS8
_symmetry_space_group_name_H-M   'P 1'
_cell_length_a   7.64522783
_cell_length_b   7.64522783
_cell_length_c   7.64522783
_cell_angle_alpha   109.04459242
_cell_angle_beta   109.04459243
_cell_angle_gamma   110.32788845
_symmetry_Int_Tables_number   1
_chemical_formula_structural   La5TlS8
_chemical_formula_sum   'La5 Tl1 S8'
_cell_volume   343.93506714
_cell_formula_units_Z   1
loop_
 _symmetry_equiv_pos_site_id
 _symmetry_equiv_pos_as_xyz
  1  'x, y, z'
loop_
 _atom_site_type_symbol
 _atom_site_label
 _atom_site_symmetry_multiplicity
 _atom_site_fract_x
 _atom_site_fract_y
 _atom_site_fract_z
 _atom_site_occupancy
  La  La0  1  0.76327800  0.37872000  0.88117300  1.0
  La  La1  1  0.25000000  0.75000000  0.50000000  1.0
  La  La2  1  0.11789600  0.23672300  0.61544300  1.0
  La  La3  1  0.49754700  0.88210500  0.11882700  1.0
  La  La4  1  0.62128000  0.50245300  0.38455800  1.0
  Tl  Tl5  1  0.00000000  0.00000000  0.00000000  1.0
  S  S6  1  0.23731200  0.49633500  0.10745400  1.0
  S  S7  1  0.71231100  0.97293100  0.58285100  1.0
  S  S8  1  0.87054000  0.28768800  0.26061900  1.0
  S  S9  1  0.39007900  0.12945900  0.41714800  1.0
  S  S10  1  0.50366500  0.61111900  0.74097700  1.0
  S  S11  1  0.38888100  0.12985800  0.89254600  1.0
  S  S12  1  0.87014200  0.76268800  0.25902300  1.0
  S  S13  1  0.02706900  0.60992100  0.73938000  1.0
