# generated using pymatgen
data_La7Rh3
_symmetry_space_group_name_H-M   'P 1'
_cell_length_a   6.48820400
_cell_length_b   10.31586325
_cell_length_c   10.31586375
_cell_angle_alpha   120.00000321
_cell_angle_beta   90.00000000
_cell_angle_gamma   90.00000000
_symmetry_Int_Tables_number   1
_chemical_formula_structural   La7Rh3
_chemical_formula_sum   'La14 Rh6'
_cell_volume   597.95195187
_cell_formula_units_Z   2
loop_
 _symmetry_equiv_pos_site_id
 _symmetry_equiv_pos_as_xyz
  1  'x, y, z'
loop_
 _atom_site_type_symbol
 _atom_site_label
 _atom_site_symmetry_multiplicity
 _atom_site_fract_x
 _atom_site_fract_y
 _atom_site_fract_z
 _atom_site_occupancy
  La  La0  1  0.43287600  0.33333333  0.66666667  1.0
  La  La1  1  0.93287600  0.66666667  0.33333333  1.0
  La  La2  1  0.23589400  0.12511600  0.87488400  1.0
  La  La3  1  0.23589400  0.74976800  0.87488400  1.0
  La  La4  1  0.23589400  0.12511600  0.25023200  1.0
  La  La5  1  0.73589400  0.87488400  0.12511600  1.0
  La  La6  1  0.73589400  0.25023200  0.12511600  1.0
  La  La7  1  0.73589400  0.87488400  0.74976800  1.0
  La  La8  1  0.40687000  0.54218800  0.45781300  1.0
  La  La9  1  0.40687000  0.91562500  0.45781300  1.0
  La  La10  1  0.40687000  0.54218800  0.08437600  1.0
  La  La11  1  0.90687000  0.45781200  0.54218700  1.0
  La  La12  1  0.90687000  0.08437500  0.54218700  1.0
  La  La13  1  0.90687000  0.45781200  0.91562400  1.0
  Rh  Rh14  1  0.14376900  0.81002700  0.18997200  1.0
  Rh  Rh15  1  0.14376900  0.37994500  0.18997200  1.0
  Rh  Rh16  1  0.14376900  0.81002700  0.62005400  1.0
  Rh  Rh17  1  0.64376900  0.18997300  0.81002800  1.0
  Rh  Rh18  1  0.64376900  0.62005500  0.81002800  1.0
  Rh  Rh19  1  0.64376900  0.18997300  0.37994600  1.0
