# generated using pymatgen
data_LaBiO3
_symmetry_space_group_name_H-M   'P 1'
_cell_length_a   6.27184036
_cell_length_b   6.27161145
_cell_length_c   6.27161200
_cell_angle_alpha   59.99999712
_cell_angle_beta   60.00120443
_cell_angle_gamma   60.00119740
_symmetry_Int_Tables_number   1
_chemical_formula_structural   LaBiO3
_chemical_formula_sum   'La2 Bi2 O6'
_cell_volume   174.44004832
_cell_formula_units_Z   2
loop_
 _symmetry_equiv_pos_site_id
 _symmetry_equiv_pos_as_xyz
  1  'x, y, z'
loop_
 _atom_site_type_symbol
 _atom_site_label
 _atom_site_symmetry_multiplicity
 _atom_site_fract_x
 _atom_site_fract_y
 _atom_site_fract_z
 _atom_site_occupancy
  La  La0  1  0.15917800  0.28027400  0.28027400  1.0
  La  La1  1  0.65917800  0.78027400  0.78027400  1.0
  Bi  Bi2  1  0.99843400  0.00052200  0.00052200  1.0
  Bi  Bi3  1  0.49843400  0.50052200  0.50052200  1.0
  O  O4  1  0.29907500  0.62454300  0.17261100  1.0
  O  O5  1  0.79907500  0.12454300  0.40377100  1.0
  O  O6  1  0.79907500  0.67261100  0.12454300  1.0
  O  O7  1  0.29907500  0.17261100  0.90377100  1.0
  O  O8  1  0.29907500  0.90377100  0.62454300  1.0
  O  O9  1  0.79907500  0.40377100  0.67261100  1.0
