# generated using pymatgen
data_LaCrSe2O
_symmetry_space_group_name_H-M   'P 1'
_cell_length_a   3.89832600
_cell_length_b   8.78312000
_cell_length_c   11.70561000
_cell_angle_alpha   89.99931163
_cell_angle_beta   89.99871699
_cell_angle_gamma   89.99949573
_symmetry_Int_Tables_number   1
_chemical_formula_structural   LaCrSe2O
_chemical_formula_sum   'La4 Cr4 Se8 O4'
_cell_volume   400.79382442
_cell_formula_units_Z   4
loop_
 _symmetry_equiv_pos_site_id
 _symmetry_equiv_pos_as_xyz
  1  'x, y, z'
loop_
 _atom_site_type_symbol
 _atom_site_label
 _atom_site_symmetry_multiplicity
 _atom_site_fract_x
 _atom_site_fract_y
 _atom_site_fract_z
 _atom_site_occupancy
  La  La0  1  0.25000200  0.95386000  0.13826800  1.0
  La  La1  1  0.75001800  0.04612500  0.86172500  1.0
  La  La2  1  0.74999600  0.54612700  0.63830000  1.0
  La  La3  1  0.25000200  0.45387400  0.36170800  1.0
  Cr  Cr4  1  0.74998900  0.67525600  0.97359600  1.0
  Cr  Cr5  1  0.24996300  0.32476500  0.02640400  1.0
  Cr  Cr6  1  0.24998600  0.82470800  0.47358500  1.0
  Cr  Cr7  1  0.75000300  0.17526700  0.52641500  1.0
  Se  Se8  1  0.25000300  0.74639800  0.82897200  1.0
  Se  Se9  1  0.75000400  0.25360900  0.17101900  1.0
  Se  Se10  1  0.75000100  0.75360000  0.32896900  1.0
  Se  Se11  1  0.24999700  0.24639400  0.67103200  1.0
  Se  Se12  1  0.24999200  0.59582500  0.10654400  1.0
  Se  Se13  1  0.74998900  0.40416900  0.89345800  1.0
  Se  Se14  1  0.75000100  0.90417800  0.60653700  1.0
  Se  Se15  1  0.24999600  0.09583300  0.39346000  1.0
  O  O16  1  0.25001100  0.60950500  0.53564800  1.0
  O  O17  1  0.74999500  0.39049700  0.46435700  1.0
  O  O18  1  0.75002400  0.89050900  0.03565800  1.0
  O  O19  1  0.25003100  0.10950100  0.96434400  1.0
