# generated using pymatgen
data_LaCrO3
_symmetry_space_group_name_H-M   'P 1'
_cell_length_a   5.52410140
_cell_length_b   5.52410440
_cell_length_c   5.52409713
_cell_angle_alpha   61.06092202
_cell_angle_beta   61.06082935
_cell_angle_gamma   61.06097839
_symmetry_Int_Tables_number   1
_chemical_formula_structural   LaCrO3
_chemical_formula_sum   'La2 Cr2 O6'
_cell_volume   122.04552317
_cell_formula_units_Z   2
loop_
 _symmetry_equiv_pos_site_id
 _symmetry_equiv_pos_as_xyz
  1  'x, y, z'
loop_
 _atom_site_type_symbol
 _atom_site_label
 _atom_site_symmetry_multiplicity
 _atom_site_fract_x
 _atom_site_fract_y
 _atom_site_fract_z
 _atom_site_occupancy
  La  La0  1  0.25000100  0.25000000  0.25000200  1.0
  La  La1  1  0.74999900  0.74999900  0.74999700  1.0
  Cr  Cr2  1  0.00000300  0.00000500  0.00000100  1.0
  Cr  Cr3  1  0.50000100  0.49999500  0.50000000  1.0
  O  O4  1  0.82304600  0.67695800  0.25000800  1.0
  O  O5  1  0.25000000  0.82304900  0.67695100  1.0
  O  O6  1  0.67694500  0.24999900  0.82305400  1.0
  O  O7  1  0.17695000  0.32304800  0.74998800  1.0
  O  O8  1  0.32305100  0.74999300  0.17695200  1.0
  O  O9  1  0.75000400  0.17695600  0.32304800  1.0
