# generated using pymatgen
data_LaCuSn
_symmetry_space_group_name_H-M   'P 1'
_cell_length_a   4.37095600
_cell_length_b   4.49267103
_cell_length_c   4.49463841
_cell_angle_alpha   119.97235476
_cell_angle_beta   90.00000000
_cell_angle_gamma   90.00000000
_symmetry_Int_Tables_number   1
_chemical_formula_structural   LaCuSn
_chemical_formula_sum   'La1 Cu1 Sn1'
_cell_volume   76.45877915
_cell_formula_units_Z   1
loop_
 _symmetry_equiv_pos_site_id
 _symmetry_equiv_pos_as_xyz
  1  'x, y, z'
loop_
 _atom_site_type_symbol
 _atom_site_label
 _atom_site_symmetry_multiplicity
 _atom_site_fract_x
 _atom_site_fract_y
 _atom_site_fract_z
 _atom_site_occupancy
  La  La0  1  1.00000000  0.00004300  0.00007700  1.0
  Cu  Cu1  1  0.50000000  0.66666667  0.33333333  1.0
  Sn  Sn2  1  0.50000000  0.33340100  0.66673433  1.0
