# generated using pymatgen
data_LaErSe2
_symmetry_space_group_name_H-M   'P 1'
_cell_length_a   4.11410408
_cell_length_b   4.11410408
_cell_length_c   7.39514181
_cell_angle_alpha   73.84942358
_cell_angle_beta   73.84942358
_cell_angle_gamma   59.99999881
_symmetry_Int_Tables_number   1
_chemical_formula_structural   LaErSe2
_chemical_formula_sum   'La1 Er1 Se2'
_cell_volume   102.65585551
_cell_formula_units_Z   1
loop_
 _symmetry_equiv_pos_site_id
 _symmetry_equiv_pos_as_xyz
  1  'x, y, z'
loop_
 _atom_site_type_symbol
 _atom_site_label
 _atom_site_symmetry_multiplicity
 _atom_site_fract_x
 _atom_site_fract_y
 _atom_site_fract_z
 _atom_site_occupancy
  La  La0  1  0.50000000  0.50000000  0.50000000  1.0
  Er  Er1  1  0.00000000  0.00000000  0.00000000  1.0
  Se  Se2  1  0.25814500  0.25814500  0.22556500  1.0
  Se  Se3  1  0.74185500  0.74185500  0.77443500  1.0
