# generated using pymatgen
data_LaFeO3
_symmetry_space_group_name_H-M   'P 1'
_cell_length_a   5.56696355
_cell_length_b   5.56695157
_cell_length_c   5.56696690
_cell_angle_alpha   60.86600058
_cell_angle_beta   60.86588358
_cell_angle_gamma   60.86586797
_symmetry_Int_Tables_number   1
_chemical_formula_structural   LaFeO3
_chemical_formula_sum   'La2 Fe2 O6'
_cell_volume   124.37588785
_cell_formula_units_Z   2
loop_
 _symmetry_equiv_pos_site_id
 _symmetry_equiv_pos_as_xyz
  1  'x, y, z'
loop_
 _atom_site_type_symbol
 _atom_site_label
 _atom_site_symmetry_multiplicity
 _atom_site_fract_x
 _atom_site_fract_y
 _atom_site_fract_z
 _atom_site_occupancy
  La  La0  1  0.74999000  0.74999100  0.74999100  1.0
  La  La1  1  0.24999300  0.24999200  0.24998900  1.0
  Fe  Fe2  1  0.99999200  0.99999300  0.99999300  1.0
  Fe  Fe3  1  0.49999300  0.49999200  0.49999300  1.0
  O  O4  1  0.82562900  0.67435800  0.24999600  1.0
  O  O5  1  0.24999700  0.82562500  0.67435600  1.0
  O  O6  1  0.67435600  0.24999400  0.82562800  1.0
  O  O7  1  0.74999400  0.17435900  0.32563100  1.0
  O  O8  1  0.32562900  0.74999700  0.17436100  1.0
  O  O9  1  0.17435800  0.32563100  0.74999500  1.0
