# generated using pymatgen
data_LaMgTl
_symmetry_space_group_name_H-M   'P 1'
_cell_length_a   4.85592000
_cell_length_b   7.87727200
_cell_length_c   7.87727142
_cell_angle_alpha   120.00000241
_cell_angle_beta   90.00000000
_cell_angle_gamma   90.00000000
_symmetry_Int_Tables_number   1
_chemical_formula_structural   LaMgTl
_chemical_formula_sum   'La3 Mg3 Tl3'
_cell_volume   260.94789371
_cell_formula_units_Z   3
loop_
 _symmetry_equiv_pos_site_id
 _symmetry_equiv_pos_as_xyz
  1  'x, y, z'
loop_
 _atom_site_type_symbol
 _atom_site_label
 _atom_site_symmetry_multiplicity
 _atom_site_fract_x
 _atom_site_fract_y
 _atom_site_fract_z
 _atom_site_occupancy
  La  La0  1  1.00000000  0.42581500  0.00000000  1.0
  La  La1  1  1.00000000  0.57418500  0.57418500  1.0
  La  La2  1  0.00000000  1.00000000  0.42581500  1.0
  Mg  Mg3  1  0.50000000  1.00000000  0.75781100  1.0
  Mg  Mg4  1  0.50000000  0.75781100  1.00000000  1.0
  Mg  Mg5  1  0.50000000  0.24218900  0.24218900  1.0
  Tl  Tl6  1  0.50000000  0.66666667  0.33333333  1.0
  Tl  Tl7  1  0.00000000  0.00000000  0.00000000  1.0
  Tl  Tl8  1  0.50000000  0.33333333  0.66666667  1.0
