# generated using pymatgen
data_LaMoN3
_symmetry_space_group_name_H-M   'P 1'
_cell_length_a   6.38211742
_cell_length_b   7.44619543
_cell_length_c   7.44619543
_cell_angle_alpha   85.75856600
_cell_angle_beta   76.47599390
_cell_angle_gamma   76.47599390
_symmetry_Int_Tables_number   1
_chemical_formula_structural   LaMoN3
_chemical_formula_sum   'La4 Mo4 N12'
_cell_volume   334.44057194
_cell_formula_units_Z   4
loop_
 _symmetry_equiv_pos_site_id
 _symmetry_equiv_pos_as_xyz
  1  'x, y, z'
loop_
 _atom_site_type_symbol
 _atom_site_label
 _atom_site_symmetry_multiplicity
 _atom_site_fract_x
 _atom_site_fract_y
 _atom_site_fract_z
 _atom_site_occupancy
  La  La0  1  0.75000000  0.31343100  0.68656900  1.0
  La  La1  1  0.75000000  0.90752400  0.09247600  1.0
  La  La2  1  0.25000000  0.09247600  0.90752400  1.0
  La  La3  1  0.25000000  0.68656900  0.31343100  1.0
  Mo  Mo4  1  0.25032600  0.20139000  0.38004700  1.0
  Mo  Mo5  1  0.74967400  0.79861000  0.61995300  1.0
  Mo  Mo6  1  0.75032600  0.38004700  0.20139000  1.0
  Mo  Mo7  1  0.24967400  0.61995300  0.79861000  1.0
  N  N8  1  0.14503200  0.12573200  0.61027900  1.0
  N  N9  1  0.15375500  0.77460900  0.99854500  1.0
  N  N10  1  0.99031200  0.36812800  0.33094100  1.0
  N  N11  1  0.35496800  0.38972100  0.87426800  1.0
  N  N12  1  0.64503200  0.61027900  0.12573200  1.0
  N  N13  1  0.65375500  0.99854500  0.77460900  1.0
  N  N14  1  0.00968800  0.63187200  0.66905900  1.0
  N  N15  1  0.34624500  0.00145500  0.22539100  1.0
  N  N16  1  0.85496800  0.87426800  0.38972100  1.0
  N  N17  1  0.50968800  0.66905900  0.63187200  1.0
  N  N18  1  0.84624500  0.22539100  0.00145500  1.0
  N  N19  1  0.49031200  0.33094100  0.36812800  1.0
