# generated using pymatgen
data_LaMoN3
_symmetry_space_group_name_H-M   'P 1'
_cell_length_a   3.96074000
_cell_length_b   5.76397000
_cell_length_c   7.78590975
_cell_angle_alpha   111.72511013
_cell_angle_beta   90.00000000
_cell_angle_gamma   90.00000000
_symmetry_Int_Tables_number   1
_chemical_formula_structural   LaMoN3
_chemical_formula_sum   'La2 Mo2 N6'
_cell_volume   165.12365989
_cell_formula_units_Z   2
loop_
 _symmetry_equiv_pos_site_id
 _symmetry_equiv_pos_as_xyz
  1  'x, y, z'
loop_
 _atom_site_type_symbol
 _atom_site_label
 _atom_site_symmetry_multiplicity
 _atom_site_fract_x
 _atom_site_fract_y
 _atom_site_fract_z
 _atom_site_occupancy
  La  La0  1  0.25000000  0.38853000  0.34786000  1.0
  La  La1  1  0.75000000  0.04067000  0.65214000  1.0
  Mo  Mo2  1  0.25000000  0.57423000  0.82474000  1.0
  Mo  Mo3  1  0.75000000  0.74949000  0.17526000  1.0
  N  N4  1  0.75000000  0.08618000  0.27726000  1.0
  N  N5  1  0.75000000  0.53663000  0.88768000  1.0
  N  N6  1  0.75000000  0.64996000  0.37548000  1.0
  N  N7  1  0.25000000  0.64895000  0.11232000  1.0
  N  N8  1  0.25000000  0.80892000  0.72274000  1.0
  N  N9  1  0.25000000  0.27448000  0.62452000  1.0
