# generated using pymatgen
data_LaNbO4
_symmetry_space_group_name_H-M   'P 1'
_cell_length_a   5.44788800
_cell_length_b   5.44788800
_cell_length_c   7.02038341
_cell_angle_alpha   112.83042271
_cell_angle_beta   112.83042271
_cell_angle_gamma   90.00000000
_symmetry_Int_Tables_number   1
_chemical_formula_structural   LaNbO4
_chemical_formula_sum   'La2 Nb2 O8'
_cell_volume   174.19111574
_cell_formula_units_Z   2
loop_
 _symmetry_equiv_pos_site_id
 _symmetry_equiv_pos_as_xyz
  1  'x, y, z'
loop_
 _atom_site_type_symbol
 _atom_site_label
 _atom_site_symmetry_multiplicity
 _atom_site_fract_x
 _atom_site_fract_y
 _atom_site_fract_z
 _atom_site_occupancy
  La  La0  1  0.50000000  0.50000000  1.00000000  1.0
  La  La1  1  0.25000000  0.75000000  0.50000000  1.0
  Nb  Nb2  1  0.00000000  0.00000000  0.00000000  1.0
  Nb  Nb3  1  0.75000000  0.25000000  0.50000000  1.0
  O  O4  1  0.16077200  0.75303300  0.82831400  1.0
  O  O5  1  0.82528100  0.41077200  0.32831400  1.0
  O  O6  1  0.50303400  0.91754300  0.32831500  1.0
  O  O7  1  0.66754200  0.07528100  0.82831500  1.0
  O  O8  1  0.08245800  0.17471900  0.67168500  1.0
  O  O9  1  0.24696600  0.33245700  0.17168500  1.0
  O  O10  1  0.92471900  0.83922800  0.17168600  1.0
  O  O11  1  0.58922800  0.49696700  0.67168600  1.0
