# generated using pymatgen
data_LaNd3(GaO3)4
_symmetry_space_group_name_H-M   'P 1'
_cell_length_a   5.48592500
_cell_length_b   5.59864177
_cell_length_c   7.82341000
_cell_angle_alpha   90.00000000
_cell_angle_beta   90.00000000
_cell_angle_gamma   89.93353099
_symmetry_Int_Tables_number   1
_chemical_formula_structural   LaNd3(GaO3)4
_chemical_formula_sum   'La1 Nd3 Ga4 O12'
_cell_volume   240.28593175
_cell_formula_units_Z   1
loop_
 _symmetry_equiv_pos_site_id
 _symmetry_equiv_pos_as_xyz
  1  'x, y, z'
loop_
 _atom_site_type_symbol
 _atom_site_label
 _atom_site_symmetry_multiplicity
 _atom_site_fract_x
 _atom_site_fract_y
 _atom_site_fract_z
 _atom_site_occupancy
  La  La0  1  0.49152900  0.53928600  0.50000000  1.0
  Nd  Nd1  1  0.01095800  0.04710500  0.50000000  1.0
  Nd  Nd2  1  0.51116600  0.45017200  0.00000000  1.0
  Nd  Nd3  1  0.98985300  0.95292500  0.00000000  1.0
  Ga  Ga4  1  0.00048900  0.50084900  0.24849800  1.0
  Ga  Ga5  1  0.49957700  0.99779700  0.75100800  1.0
  Ga  Ga6  1  0.00048900  0.50084900  0.75150200  1.0
  Ga  Ga7  1  0.49957700  0.99779700  0.24899200  1.0
  O  O8  1  0.58374100  0.98354900  0.50000000  1.0
  O  O9  1  0.92468800  0.47828500  0.50000000  1.0
  O  O10  1  0.41651900  0.02148600  0.00000000  1.0
  O  O11  1  0.08484000  0.52289300  1.00000000  1.0
  O  O12  1  0.20458700  0.79607100  0.29235600  1.0
  O  O13  1  0.28993200  0.29090400  0.70902500  1.0
  O  O14  1  0.79051900  0.20870600  0.79466400  1.0
  O  O15  1  0.70824800  0.70782300  0.20386100  1.0
  O  O16  1  0.79051900  0.20870600  0.20533600  1.0
  O  O17  1  0.70824800  0.70782300  0.79613900  1.0
  O  O18  1  0.20458700  0.79607100  0.70764400  1.0
  O  O19  1  0.28993200  0.29090400  0.29097500  1.0
