# generated using pymatgen
data_LaNi4Rh
_symmetry_space_group_name_H-M   'P 1'
_cell_length_a   3.98519100
_cell_length_b   4.94677800
_cell_length_c   5.15890294
_cell_angle_alpha   61.35110818
_cell_angle_beta   90.00000000
_cell_angle_gamma   90.00000000
_symmetry_Int_Tables_number   1
_chemical_formula_structural   LaNi4Rh
_chemical_formula_sum   'La1 Ni4 Rh1'
_cell_volume   89.25093082
_cell_formula_units_Z   1
loop_
 _symmetry_equiv_pos_site_id
 _symmetry_equiv_pos_as_xyz
  1  'x, y, z'
loop_
 _atom_site_type_symbol
 _atom_site_label
 _atom_site_symmetry_multiplicity
 _atom_site_fract_x
 _atom_site_fract_y
 _atom_site_fract_z
 _atom_site_occupancy
  La  La0  1  1.00000000  0.50000000  1.00000000  1.0
  Ni  Ni1  1  0.00000000  0.17571900  0.64856200  1.0
  Ni  Ni2  1  0.00000000  0.82428100  0.35143800  1.0
  Ni  Ni3  1  0.50000000  0.50000000  0.50000000  1.0
  Ni  Ni4  1  0.50000000  0.00000000  0.50000000  1.0
  Rh  Rh5  1  0.50000000  0.00000000  0.00000000  1.0
