# generated using pymatgen
data_LaPr3(GaO3)4
_symmetry_space_group_name_H-M   'P 1'
_cell_length_a   5.53851200
_cell_length_b   5.57012347
_cell_length_c   7.85951100
_cell_angle_alpha   90.00000000
_cell_angle_beta   90.00000000
_cell_angle_gamma   89.97653702
_symmetry_Int_Tables_number   1
_chemical_formula_structural   LaPr3(GaO3)4
_chemical_formula_sum   'La1 Pr3 Ga4 O12'
_cell_volume   242.46743197
_cell_formula_units_Z   1
loop_
 _symmetry_equiv_pos_site_id
 _symmetry_equiv_pos_as_xyz
  1  'x, y, z'
loop_
 _atom_site_type_symbol
 _atom_site_label
 _atom_site_symmetry_multiplicity
 _atom_site_fract_x
 _atom_site_fract_y
 _atom_site_fract_z
 _atom_site_occupancy
  La  La0  1  0.49209800  0.53132000  0.50000000  1.0
  Pr  Pr1  1  0.00933200  0.03667600  0.50000000  1.0
  Pr  Pr2  1  0.50961400  0.46231200  1.00000000  1.0
  Pr  Pr3  1  0.99132100  0.96300700  0.00000000  1.0
  Ga  Ga4  1  0.00011000  0.50043800  0.24935800  1.0
  Ga  Ga5  1  0.49998400  0.99905500  0.75039800  1.0
  Ga  Ga6  1  0.00011000  0.50043800  0.75064200  1.0
  Ga  Ga7  1  0.49998400  0.99905500  0.24960200  1.0
  O  O8  1  0.57917300  0.98558200  0.50000000  1.0
  O  O9  1  0.92452700  0.48316700  0.50000000  1.0
  O  O10  1  0.42125000  0.01726700  1.00000000  1.0
  O  O11  1  0.07962700  0.51710700  0.00000000  1.0
  O  O12  1  0.21377300  0.78696000  0.29127800  1.0
  O  O13  1  0.28316500  0.28418700  0.70863100  1.0
  O  O14  1  0.78358400  0.21577400  0.79263600  1.0
  O  O15  1  0.71591300  0.71536700  0.20632000  1.0
  O  O16  1  0.78358400  0.21577400  0.20736400  1.0
  O  O17  1  0.71591300  0.71536700  0.79368000  1.0
  O  O18  1  0.21377300  0.78696000  0.70872200  1.0
  O  O19  1  0.28316500  0.28418700  0.29136900  1.0
