# generated using pymatgen
data_LaSiPt
_symmetry_space_group_name_H-M   'P 1'
_cell_length_a   4.27780800
_cell_length_b   4.27780800
_cell_length_c   7.94541446
_cell_angle_alpha   105.61665598
_cell_angle_beta   105.61665598
_cell_angle_gamma   90.00000000
_symmetry_Int_Tables_number   1
_chemical_formula_structural   LaSiPt
_chemical_formula_sum   'La2 Si2 Pt2'
_cell_volume   134.44918483
_cell_formula_units_Z   2
loop_
 _symmetry_equiv_pos_site_id
 _symmetry_equiv_pos_as_xyz
  1  'x, y, z'
loop_
 _atom_site_type_symbol
 _atom_site_label
 _atom_site_symmetry_multiplicity
 _atom_site_fract_x
 _atom_site_fract_y
 _atom_site_fract_z
 _atom_site_occupancy
  La  La0  1  0.58018700  0.58018700  0.16037400  1.0
  La  La1  1  0.33018700  0.83018700  0.66037400  1.0
  Si  Si2  1  0.99969400  0.99969400  0.99938800  1.0
  Si  Si3  1  0.74969400  0.24969400  0.49938800  1.0
  Pt  Pt4  1  0.16711900  0.16711900  0.33423800  1.0
  Pt  Pt5  1  0.91711900  0.41711900  0.83423800  1.0
