# generated using pymatgen
data_LaTaO4
_symmetry_space_group_name_H-M   'P 1'
_cell_length_a   3.97329200
_cell_length_b   5.66807100
_cell_length_c   7.75278203
_cell_angle_alpha   90.00000000
_cell_angle_beta   104.84763254
_cell_angle_gamma   90.00000000
_symmetry_Int_Tables_number   1
_chemical_formula_structural   LaTaO4
_chemical_formula_sum   'La2 Ta2 O8'
_cell_volume   168.76987647
_cell_formula_units_Z   2
loop_
 _symmetry_equiv_pos_site_id
 _symmetry_equiv_pos_as_xyz
  1  'x, y, z'
loop_
 _atom_site_type_symbol
 _atom_site_label
 _atom_site_symmetry_multiplicity
 _atom_site_fract_x
 _atom_site_fract_y
 _atom_site_fract_z
 _atom_site_occupancy
  La  La0  1  0.82448200  0.16779200  0.64896400  1.0
  La  La1  1  0.17551800  0.66779200  0.35103600  1.0
  Ta  Ta2  1  0.58462800  0.21670000  0.16925600  1.0
  Ta  Ta3  1  0.41537200  0.71670000  0.83074400  1.0
  O  O4  1  0.91147000  0.75169300  0.82294000  1.0
  O  O5  1  0.08853000  0.25169300  0.17706000  1.0
  O  O6  1  0.47128800  0.05596800  0.94257600  1.0
  O  O7  1  0.52871200  0.55596800  0.05742400  1.0
  O  O8  1  0.69859700  0.42574800  0.39719400  1.0
  O  O9  1  0.30140300  0.92574800  0.60280600  1.0
  O  O10  1  0.66359800  0.94869900  0.32719600  1.0
  O  O11  1  0.33640200  0.44869900  0.67280400  1.0
