# generated using pymatgen
data_LaTb3
_symmetry_space_group_name_H-M   'P 1'
_cell_length_a   5.81443200
_cell_length_b   7.32771400
_cell_length_c   7.32771359
_cell_angle_alpha   120.00000186
_cell_angle_beta   90.00000000
_cell_angle_gamma   90.00000000
_symmetry_Int_Tables_number   1
_chemical_formula_structural   LaTb3
_chemical_formula_sum   'La2 Tb6'
_cell_volume   270.38021945
_cell_formula_units_Z   2
loop_
 _symmetry_equiv_pos_site_id
 _symmetry_equiv_pos_as_xyz
  1  'x, y, z'
loop_
 _atom_site_type_symbol
 _atom_site_label
 _atom_site_symmetry_multiplicity
 _atom_site_fract_x
 _atom_site_fract_y
 _atom_site_fract_z
 _atom_site_occupancy
  La  La0  1  0.75000000  0.33333333  0.66666667  1.0
  La  La1  1  0.25000000  0.66666667  0.33333333  1.0
  Tb  Tb2  1  0.25000000  0.16504300  0.33008600  1.0
  Tb  Tb3  1  0.25000000  0.66991400  0.83495700  1.0
  Tb  Tb4  1  0.25000000  0.16504300  0.83495700  1.0
  Tb  Tb5  1  0.75000000  0.83495700  0.66991400  1.0
  Tb  Tb6  1  0.75000000  0.33008600  0.16504300  1.0
  Tb  Tb7  1  0.75000000  0.83495700  0.16504300  1.0
