# generated using pymatgen
data_LaTm(Ge2Ir)2
_symmetry_space_group_name_H-M   'P 1'
_cell_length_a   4.35952600
_cell_length_b   8.93143600
_cell_length_c   9.53911427
_cell_angle_alpha   117.91415119
_cell_angle_beta   103.20924168
_cell_angle_gamma   89.99999999
_symmetry_Int_Tables_number   1
_chemical_formula_structural   LaTm(Ge2Ir)2
_chemical_formula_sum   'La2 Tm2 Ge8 Ir4'
_cell_volume   317.04405190
_cell_formula_units_Z   2
loop_
 _symmetry_equiv_pos_site_id
 _symmetry_equiv_pos_as_xyz
  1  'x, y, z'
loop_
 _atom_site_type_symbol
 _atom_site_label
 _atom_site_symmetry_multiplicity
 _atom_site_fract_x
 _atom_site_fract_y
 _atom_site_fract_z
 _atom_site_occupancy
  La  La0  1  1.00000000  0.73900300  1.00000000  1.0
  La  La1  1  0.00000000  0.26099700  0.00000000  1.0
  Tm  Tm2  1  0.20671600  0.70671600  0.41343200  1.0
  Tm  Tm3  1  0.79328400  0.29328400  0.58656800  1.0
  Ge  Ge4  1  0.79868400  0.95004800  0.59736800  1.0
  Ge  Ge5  1  0.20131600  0.04995200  0.40263200  1.0
  Ge  Ge6  1  0.20131600  0.35268000  0.40263200  1.0
  Ge  Ge7  1  0.79868400  0.64732000  0.59736800  1.0
  Ge  Ge8  1  0.57897800  0.07897800  0.15795600  1.0
  Ge  Ge9  1  0.57989400  0.57989400  0.15978800  1.0
  Ge  Ge10  1  0.42102200  0.92102200  0.84204400  1.0
  Ge  Ge11  1  0.42010600  0.42010600  0.84021200  1.0
  Ir  Ir12  1  0.35104700  0.60278800  0.70209300  1.0
  Ir  Ir13  1  0.64895300  0.39721200  0.29790700  1.0
  Ir  Ir14  1  0.35104600  0.09930500  0.70209200  1.0
  Ir  Ir15  1  0.64895400  0.90069500  0.29790800  1.0
