# generated using pymatgen
data_LaZn2
_symmetry_space_group_name_H-M   'P 1'
_cell_length_a   4.70238800
_cell_length_b   5.86985256
_cell_length_c   5.86985256
_cell_angle_alpha   81.03660749
_cell_angle_beta   66.38717227
_cell_angle_gamma   66.38717227
_symmetry_Int_Tables_number   1
_chemical_formula_structural   LaZn2
_chemical_formula_sum   'La2 Zn4'
_cell_volume   136.02416254
_cell_formula_units_Z   2
loop_
 _symmetry_equiv_pos_site_id
 _symmetry_equiv_pos_as_xyz
  1  'x, y, z'
loop_
 _atom_site_type_symbol
 _atom_site_label
 _atom_site_symmetry_multiplicity
 _atom_site_fract_x
 _atom_site_fract_y
 _atom_site_fract_z
 _atom_site_occupancy
  La  La0  1  0.45718100  0.29281900  0.79281900  1.0
  La  La1  1  0.54281900  0.70718100  0.20718100  1.0
  Zn  Zn2  1  0.83510300  0.72698000  0.60281400  1.0
  Zn  Zn3  1  0.16489700  0.27302000  0.39718600  1.0
  Zn  Zn4  1  0.16489700  0.89718600  0.77302000  1.0
  Zn  Zn5  1  0.83510300  0.10281400  0.22698000  1.0
