# generated using pymatgen
data_Li(CoO2)2
_symmetry_space_group_name_H-M   'P 1'
_cell_length_a   2.86808721
_cell_length_b   5.04364766
_cell_length_c   5.07144951
_cell_angle_alpha   71.27015163
_cell_angle_beta   89.73878339
_cell_angle_gamma   88.52608381
_symmetry_Int_Tables_number   1
_chemical_formula_structural   Li(CoO2)2
_chemical_formula_sum   'Li1 Co2 O4'
_cell_volume   69.45314571
_cell_formula_units_Z   1
loop_
 _symmetry_equiv_pos_site_id
 _symmetry_equiv_pos_as_xyz
  1  'x, y, z'
loop_
 _atom_site_type_symbol
 _atom_site_label
 _atom_site_symmetry_multiplicity
 _atom_site_fract_x
 _atom_site_fract_y
 _atom_site_fract_z
 _atom_site_occupancy
  Co  Co2  1  0.00000750  0.49998000  0.50001350  1.0
  Co  Co4  1  0.50000900  0.00006300  0.49998600  1.0
  Li  Li0  1  0.99999900  0.99998300  0.99999900  1.0
  O  O6  1  0.51868600  0.75609350  0.28675350  1.0
  O  O8  1  0.48130300  0.24389800  0.71323600  1.0
  O  O10  1  0.01304350  0.78611800  0.70577650  1.0
  O  O12  1  0.98695200  0.21386250  0.29423650  1.0
