# generated using pymatgen
data_Li(MoO2)2
_symmetry_space_group_name_H-M   'P 1'
_cell_length_a   6.26748479
_cell_length_b   6.26752744
_cell_length_c   6.34362498
_cell_angle_alpha   60.83902122
_cell_angle_beta   60.83874334
_cell_angle_gamma   90.04001635
_symmetry_Int_Tables_number   1
_chemical_formula_structural   Li(MoO2)2
_chemical_formula_sum   'Li2 Mo4 O8'
_cell_volume   180.52102500
_cell_formula_units_Z   2
loop_
 _symmetry_equiv_pos_site_id
 _symmetry_equiv_pos_as_xyz
  1  'x, y, z'
loop_
 _atom_site_type_symbol
 _atom_site_label
 _atom_site_symmetry_multiplicity
 _atom_site_fract_x
 _atom_site_fract_y
 _atom_site_fract_z
 _atom_site_occupancy
  Li  Li0  1  0.13092000  0.36907500  0.75000300  1.0
  Li  Li1  1  0.86908300  0.63092400  0.24999600  1.0
  Mo  Mo2  1  0.50000000  0.50000000  0.00000000  1.0
  Mo  Mo3  1  0.00000100  0.00000100  0.49999900  1.0
  Mo  Mo4  1  0.49999900  0.00000000  0.00000200  1.0
  Mo  Mo5  1  0.50000000  0.00000100  0.49999800  1.0
  O  O6  1  0.25926800  0.22309300  0.02869500  1.0
  O  O7  1  0.72276800  0.21363000  0.53058900  1.0
  O  O8  1  0.74073300  0.77690900  0.97130400  1.0
  O  O9  1  0.71363100  0.22277000  0.03058700  1.0
  O  O10  1  0.27723200  0.78637200  0.46941000  1.0
  O  O11  1  0.72309200  0.75926800  0.52869500  1.0
  O  O12  1  0.28636900  0.77723200  0.96941200  1.0
  O  O13  1  0.27690800  0.24073300  0.47130400  1.0
