# generated using pymatgen
data_Li(NiO2)3
_symmetry_space_group_name_H-M   'P 1'
_cell_length_a   4.86815691
_cell_length_b   4.86815305
_cell_length_c   5.23320902
_cell_angle_alpha   99.53101426
_cell_angle_beta   99.53116643
_cell_angle_gamma   118.70205707
_symmetry_Int_Tables_number   1
_chemical_formula_structural   Li(NiO2)3
_chemical_formula_sum   'Li1 Ni3 O6'
_cell_volume   102.88438027
_cell_formula_units_Z   1
loop_
 _symmetry_equiv_pos_site_id
 _symmetry_equiv_pos_as_xyz
  1  'x, y, z'
loop_
 _atom_site_type_symbol
 _atom_site_label
 _atom_site_symmetry_multiplicity
 _atom_site_fract_x
 _atom_site_fract_y
 _atom_site_fract_z
 _atom_site_occupancy
  Li  Li0  1  0.83333050  0.16666900  0.49999850  1.0
  Ni  Ni2  1  0.33332917  0.66666583  0.00000100  1.0
  Ni  Ni3  1  0.66668183  0.33331767  0.99999950  1.0
  Ni  Ni4  1  0.99996800  0.00003250  0.99999950  1.0
  O  O8  1  0.62848650  0.96182150  0.79176300  1.0
  O  O10  1  0.03817850  0.37151350  0.20823700  1.0
  O  O12  1  0.25861250  0.26067800  0.80577450  1.0
  O  O14  1  0.92734600  0.59194750  0.80577550  1.0
  O  O16  1  0.40805350  0.07265500  0.19422450  1.0
  O  O18  1  0.73932400  0.74138800  0.19422600  1.0
