# generated using pymatgen
data_Li11TiP5
_symmetry_space_group_name_H-M   'P 1'
_cell_length_a   4.11262400
_cell_length_b   7.18908747
_cell_length_c   9.53310161
_cell_angle_alpha   74.30440346
_cell_angle_beta   77.54326671
_cell_angle_gamma   73.37942956
_symmetry_Int_Tables_number   1
_chemical_formula_structural   Li11TiP5
_chemical_formula_sum   'Li11 Ti1 P5'
_cell_volume   257.06968591
_cell_formula_units_Z   1
loop_
 _symmetry_equiv_pos_site_id
 _symmetry_equiv_pos_as_xyz
  1  'x, y, z'
loop_
 _atom_site_type_symbol
 _atom_site_label
 _atom_site_symmetry_multiplicity
 _atom_site_fract_x
 _atom_site_fract_y
 _atom_site_fract_z
 _atom_site_occupancy
  Li  Li0  1  0.19825200  0.68020500  0.92329100  1.0
  Li  Li1  1  0.60446900  0.69412500  0.09693700  1.0
  Li  Li2  1  0.60749400  0.43534500  0.34966700  1.0
  Li  Li3  1  0.60107100  0.94893600  0.84892200  1.0
  Li  Li4  1  0.99095700  0.76285900  0.25522700  1.0
  Li  Li5  1  0.02024400  0.22050600  0.73900600  1.0
  Li  Li6  1  0.39373200  0.29360900  0.91892700  1.0
  Li  Li7  1  0.41627300  0.52651700  0.64093700  1.0
  Li  Li8  1  0.38349500  0.06363900  0.16937100  1.0
  Li  Li9  1  0.79686900  0.32794200  0.07832000  1.0
  Li  Li10  1  0.19418400  0.17650000  0.43513200  1.0
  Ti  Ti11  1  0.79661300  0.84845200  0.55832200  1.0
  P  P12  1  0.99495800  0.00740000  0.00268400  1.0
  P  P13  1  0.38757500  0.80522800  0.41962200  1.0
  P  P14  1  0.80800600  0.60048400  0.78350400  1.0
  P  P15  1  0.19155500  0.43427000  0.18262000  1.0
  P  P16  1  0.61425300  0.17398400  0.59751000  1.0
