# generated using pymatgen
data_Li2AlCoO4
_symmetry_space_group_name_H-M   'P 1'
_cell_length_a   2.87419200
_cell_length_b   5.01467819
_cell_length_c   5.09026227
_cell_angle_alpha   99.23718287
_cell_angle_beta   106.39887284
_cell_angle_gamma   90.00000000
_symmetry_Int_Tables_number   1
_chemical_formula_structural   Li2AlCoO4
_chemical_formula_sum   'Li2 Al1 Co1 O4'
_cell_volume   69.38980430
_cell_formula_units_Z   1
loop_
 _symmetry_equiv_pos_site_id
 _symmetry_equiv_pos_as_xyz
  1  'x, y, z'
loop_
 _atom_site_type_symbol
 _atom_site_label
 _atom_site_symmetry_multiplicity
 _atom_site_fract_x
 _atom_site_fract_y
 _atom_site_fract_z
 _atom_site_occupancy
  Li  Li0  1  0.25273300  0.25014000  0.50546600  1.0
  Li  Li1  1  0.74726700  0.74986000  0.49453400  1.0
  Al  Al2  1  0.50000000  1.00000000  0.00000000  1.0
  Co  Co3  1  0.00000000  0.50000000  0.00000000  1.0
  O  O4  1  0.38809200  0.63915200  0.77618400  1.0
  O  O5  1  0.89038000  0.11738700  0.78076000  1.0
  O  O6  1  0.61190800  0.36084800  0.22381600  1.0
  O  O7  1  0.10962000  0.88261300  0.21924000  1.0
