# generated using pymatgen
data_Li2B2Se5
_symmetry_space_group_name_H-M   'P 1'
_cell_length_a   5.33444000
_cell_length_b   6.01645714
_cell_length_c   12.15722665
_cell_angle_alpha   79.84930817
_cell_angle_beta   77.32657028
_cell_angle_gamma   63.68405230
_symmetry_Int_Tables_number   1
_chemical_formula_structural   Li2B2Se5
_chemical_formula_sum   'Li4 B4 Se10'
_cell_volume   339.82704543
_cell_formula_units_Z   2
loop_
 _symmetry_equiv_pos_site_id
 _symmetry_equiv_pos_as_xyz
  1  'x, y, z'
loop_
 _atom_site_type_symbol
 _atom_site_label
 _atom_site_symmetry_multiplicity
 _atom_site_fract_x
 _atom_site_fract_y
 _atom_site_fract_z
 _atom_site_occupancy
  Li  Li0  1  0.89431400  0.31767400  0.93239100  1.0
  Li  Li1  1  0.14437900  0.18232600  0.56760900  1.0
  Li  Li2  1  0.10568600  0.68232600  0.06760900  1.0
  Li  Li3  1  0.85562100  0.81767400  0.43239100  1.0
  B  B4  1  0.41142600  0.57371100  0.70737400  1.0
  B  B5  1  0.69251100  0.92628900  0.79262600  1.0
  B  B6  1  0.58857400  0.42628900  0.29262600  1.0
  B  B7  1  0.30748900  0.07371100  0.20737400  1.0
  Se  Se8  1  0.24559300  0.75000000  0.25000000  1.0
  Se  Se9  1  0.75440700  0.25000000  0.75000000  1.0
  Se  Se10  1  0.07449000  0.65380800  0.83946300  1.0
  Se  Se11  1  0.56776100  0.84619200  0.66053700  1.0
  Se  Se12  1  0.92551000  0.34619200  0.16053700  1.0
  Se  Se13  1  0.43223900  0.15380800  0.33946300  1.0
  Se  Se14  1  0.26968300  0.57014100  0.56138200  1.0
  Se  Se15  1  0.40120600  0.92985900  0.93861800  1.0
  Se  Se16  1  0.73031700  0.42985900  0.43861800  1.0
  Se  Se17  1  0.59879400  0.07014100  0.06138200  1.0
