# generated using pymatgen
data_Li2CuSiO4
_symmetry_space_group_name_H-M   'P 1'
_cell_length_a   4.41281400
_cell_length_b   4.41281400
_cell_length_c   5.28802889
_cell_angle_alpha   114.66081496
_cell_angle_beta   114.66081495
_cell_angle_gamma   90.00000000
_symmetry_Int_Tables_number   1
_chemical_formula_structural   Li2CuSiO4
_chemical_formula_sum   'Li2 Cu1 Si1 O4'
_cell_volume   83.13545725
_cell_formula_units_Z   1
loop_
 _symmetry_equiv_pos_site_id
 _symmetry_equiv_pos_as_xyz
  1  'x, y, z'
loop_
 _atom_site_type_symbol
 _atom_site_label
 _atom_site_symmetry_multiplicity
 _atom_site_fract_x
 _atom_site_fract_y
 _atom_site_fract_z
 _atom_site_occupancy
  Li  Li0  1  0.75000000  0.25000000  0.50000000  1.0
  Li  Li1  1  0.25000000  0.75000000  0.50000000  1.0
  Cu  Cu2  1  0.00000000  0.00000000  0.00000000  1.0
  Si  Si3  1  0.50000000  0.50000000  0.00000000  1.0
  O  O4  1  0.60722400  0.60722400  0.77966500  1.0
  O  O5  1  0.17244100  0.17244100  0.77966500  1.0
  O  O6  1  0.39277600  0.82756000  0.22033600  1.0
  O  O7  1  0.82755900  0.39277500  0.22033400  1.0
