# generated using pymatgen
data_Li2Cr3CoO8
_symmetry_space_group_name_H-M   'P 1'
_cell_length_a   5.88177324
_cell_length_b   5.88177324
_cell_length_c   5.90942869
_cell_angle_alpha   60.15468605
_cell_angle_beta   60.15468605
_cell_angle_gamma   59.99998596
_symmetry_Int_Tables_number   1
_chemical_formula_structural   Li2Cr3CoO8
_chemical_formula_sum   'Li2 Cr3 Co1 O8'
_cell_volume   144.89669338
_cell_formula_units_Z   1
loop_
 _symmetry_equiv_pos_site_id
 _symmetry_equiv_pos_as_xyz
  1  'x, y, z'
loop_
 _atom_site_type_symbol
 _atom_site_label
 _atom_site_symmetry_multiplicity
 _atom_site_fract_x
 _atom_site_fract_y
 _atom_site_fract_z
 _atom_site_occupancy
  Li  Li0  1  0.87667500  0.87667500  0.36997500  1.0
  Li  Li1  1  0.49949400  0.49949400  0.50151800  1.0
  Cr  Cr2  1  0.50159100  0.50159100  0.00299200  1.0
  Cr  Cr3  1  0.99382600  0.50159100  0.00299200  1.0
  Cr  Cr4  1  0.50159100  0.99382600  0.00299200  1.0
  Co  Co5  1  0.12073100  0.12073100  0.63780700  1.0
  O  O6  1  0.74022300  0.74022300  0.77933100  1.0
  O  O7  1  0.75075600  0.29110500  0.20738300  1.0
  O  O8  1  0.29110500  0.75075600  0.20738300  1.0
  O  O9  1  0.75075600  0.75075600  0.20738300  1.0
  O  O10  1  0.25202700  0.25202700  0.78463200  1.0
  O  O11  1  0.71131400  0.25202700  0.78463200  1.0
  O  O12  1  0.25202700  0.71131400  0.78463200  1.0
  O  O13  1  0.25788400  0.25788400  0.22634800  1.0
