# generated using pymatgen
data_Li2CoBO4
_symmetry_space_group_name_H-M   'P 1'
_cell_length_a   5.02602304
_cell_length_b   5.02602232
_cell_length_c   6.03497300
_cell_angle_alpha   90.00002461
_cell_angle_beta   90.00002461
_cell_angle_gamma   91.79595195
_symmetry_Int_Tables_number   1
_chemical_formula_structural   Li2CoBO4
_chemical_formula_sum   'Li4 Co2 B2 O8'
_cell_volume   152.37398710
_cell_formula_units_Z   2
loop_
 _symmetry_equiv_pos_site_id
 _symmetry_equiv_pos_as_xyz
  1  'x, y, z'
loop_
 _atom_site_type_symbol
 _atom_site_label
 _atom_site_symmetry_multiplicity
 _atom_site_fract_x
 _atom_site_fract_y
 _atom_site_fract_z
 _atom_site_occupancy
  Li  Li0  1  0.67331700  0.67331800  0.50000000  1.0
  Li  Li1  1  0.32668200  0.32668300  1.00000000  1.0
  Li  Li2  1  0.19281700  0.80718300  0.75000000  1.0
  Li  Li3  1  0.80718200  0.19281800  0.25000000  1.0
  Co  Co4  1  0.81765900  0.18234100  0.75000000  1.0
  Co  Co5  1  0.18233100  0.81766900  0.25000000  1.0
  B  B6  1  0.68507200  0.68507400  0.99999700  1.0
  B  B7  1  0.31492600  0.31492800  0.50000300  1.0
  O  O8  1  0.81155000  0.79438000  0.20556500  1.0
  O  O9  1  0.79438100  0.81154600  0.79443100  1.0
  O  O10  1  0.18845400  0.20562000  0.70556900  1.0
  O  O11  1  0.20562000  0.18845000  0.29443500  1.0
  O  O12  1  0.39071900  0.72200800  0.01050300  1.0
  O  O13  1  0.72201500  0.39071500  0.98950300  1.0
  O  O14  1  0.27799100  0.60928100  0.48949700  1.0
  O  O15  1  0.60928500  0.27798500  0.51049700  1.0
