# generated using pymatgen
data_Li2Ga
_symmetry_space_group_name_H-M   'P 1'
_cell_length_a   4.38061300
_cell_length_b   4.53135000
_cell_length_c   5.21047574
_cell_angle_alpha   64.22547618
_cell_angle_beta   90.00000000
_cell_angle_gamma   90.00000000
_symmetry_Int_Tables_number   1
_chemical_formula_structural   Li2Ga
_chemical_formula_sum   'Li4 Ga2'
_cell_volume   93.13855102
_cell_formula_units_Z   2
loop_
 _symmetry_equiv_pos_site_id
 _symmetry_equiv_pos_as_xyz
  1  'x, y, z'
loop_
 _atom_site_type_symbol
 _atom_site_label
 _atom_site_symmetry_multiplicity
 _atom_site_fract_x
 _atom_site_fract_y
 _atom_site_fract_z
 _atom_site_occupancy
  Li  Li0  1  0.75000000  0.41306500  0.17387000  1.0
  Li  Li1  1  0.25000000  0.58693500  0.82613000  1.0
  Li  Li2  1  0.25000000  0.24182600  0.51634800  1.0
  Li  Li3  1  0.75000000  0.75817400  0.48365200  1.0
  Ga  Ga4  1  0.75000000  0.07861900  0.84276200  1.0
  Ga  Ga5  1  0.25000000  0.92138100  0.15723800  1.0
