# generated using pymatgen
data_Li2MnF4
_symmetry_space_group_name_H-M   'P 1'
_cell_length_a   3.23813600
_cell_length_b   5.23691700
_cell_length_c   5.27485015
_cell_angle_alpha   112.73580924
_cell_angle_beta   90.00000000
_cell_angle_gamma   90.00000000
_symmetry_Int_Tables_number   1
_chemical_formula_structural   Li2MnF4
_chemical_formula_sum   'Li2 Mn1 F4'
_cell_volume   82.49954761
_cell_formula_units_Z   1
loop_
 _symmetry_equiv_pos_site_id
 _symmetry_equiv_pos_as_xyz
  1  'x, y, z'
loop_
 _atom_site_type_symbol
 _atom_site_label
 _atom_site_symmetry_multiplicity
 _atom_site_fract_x
 _atom_site_fract_y
 _atom_site_fract_z
 _atom_site_occupancy
  F  F6  1  1.00000000  0.75653900  0.72988200  1.0
  F  F7  1  0.50000000  0.26139200  0.75628400  1.0
  F  F8  1  1.00000000  0.22714400  0.25049200  1.0
  F  F10  1  0.50000000  0.74704600  0.24647200  1.0
  Li  Li0  1  0.50000000  0.66342800  0.85115400  1.0
  Li  Li1  1  0.50000000  0.34658500  0.15456000  1.0
  Mn  Mn4  1  0.00000000  0.00490800  0.50209600  1.0
