# generated using pymatgen
data_Li2MnV3O8
_symmetry_space_group_name_H-M   'P 1'
_cell_length_a   5.96858443
_cell_length_b   5.96895060
_cell_length_c   6.03086570
_cell_angle_alpha   60.34373138
_cell_angle_beta   90.00320511
_cell_angle_gamma   60.00189230
_symmetry_Int_Tables_number   1
_chemical_formula_structural   Li2MnV3O8
_chemical_formula_sum   'Li2 Mn1 V3 O8'
_cell_volume   152.71135371
_cell_formula_units_Z   1
loop_
 _symmetry_equiv_pos_site_id
 _symmetry_equiv_pos_as_xyz
  1  'x, y, z'
loop_
 _atom_site_type_symbol
 _atom_site_label
 _atom_site_symmetry_multiplicity
 _atom_site_fract_x
 _atom_site_fract_y
 _atom_site_fract_z
 _atom_site_occupancy
  Li  Li0  1  0.12079800  0.75850300  0.36227400  1.0
  Li  Li1  1  0.50104600  0.99784000  0.50330300  1.0
  Mn  Mn2  1  0.87918000  0.24162900  0.63731400  1.0
  V  V3  1  0.00638700  0.48902500  0.00225600  1.0
  V  V4  1  0.50467500  0.00394600  0.00238200  1.0
  V  V5  1  0.49126400  0.50244000  0.00218500  1.0
  O  O6  1  0.25933300  0.48134200  0.77808600  1.0
  O  O7  1  0.23506300  0.05693000  0.20899000  1.0
  O  O8  1  0.26603500  0.49875800  0.20915900  1.0
  O  O9  1  0.70797300  0.02603900  0.20923400  1.0
  O  O10  1  0.29561100  0.97110400  0.78895600  1.0
  O  O11  1  0.73334200  0.50661200  0.78898100  1.0
  O  O12  1  0.76000700  0.94438300  0.78899000  1.0
  O  O13  1  0.73928900  0.52144200  0.21789900  1.0
