# generated using pymatgen
data_Li2Mg
_symmetry_space_group_name_H-M   'P 1'
_cell_length_a   3.03963800
_cell_length_b   5.83837013
_cell_length_c   7.51082844
_cell_angle_alpha   106.42167407
_cell_angle_beta   90.00000000
_cell_angle_gamma   105.08879134
_symmetry_Int_Tables_number   1
_chemical_formula_structural   Li2Mg
_chemical_formula_sum   'Li4 Mg2'
_cell_volume   123.05553447
_cell_formula_units_Z   2
loop_
 _symmetry_equiv_pos_site_id
 _symmetry_equiv_pos_as_xyz
  1  'x, y, z'
loop_
 _atom_site_type_symbol
 _atom_site_label
 _atom_site_symmetry_multiplicity
 _atom_site_fract_x
 _atom_site_fract_y
 _atom_site_fract_z
 _atom_site_occupancy
  Li  Li0  1  0.19553800  0.39107600  0.63946400  1.0
  Li  Li1  1  0.86023500  0.72047000  0.97034700  1.0
  Li  Li2  1  0.13976500  0.27953000  0.02965300  1.0
  Li  Li3  1  0.80446200  0.60892400  0.36053600  1.0
  Mg  Mg4  1  0.47283400  0.94566800  0.69629100  1.0
  Mg  Mg5  1  0.52716600  0.05433200  0.30370900  1.0
