# generated using pymatgen
data_Li2MnCoO4
_symmetry_space_group_name_H-M   'P 1'
_cell_length_a   5.81472730
_cell_length_b   5.81472730
_cell_length_c   6.01291764
_cell_angle_alpha   118.47545829
_cell_angle_beta   117.68951333
_cell_angle_gamma   91.51557753
_symmetry_Int_Tables_number   1
_chemical_formula_structural   Li2MnCoO4
_chemical_formula_sum   'Li4 Mn2 Co2 O8'
_cell_volume   149.99470985
_cell_formula_units_Z   2
loop_
 _symmetry_equiv_pos_site_id
 _symmetry_equiv_pos_as_xyz
  1  'x, y, z'
loop_
 _atom_site_type_symbol
 _atom_site_label
 _atom_site_symmetry_multiplicity
 _atom_site_fract_x
 _atom_site_fract_y
 _atom_site_fract_z
 _atom_site_occupancy
  Li  Li0  1  0.50000000  0.00000000  0.50000000  1.0
  Li  Li1  1  0.50000000  0.00000000  0.00000000  1.0
  Li  Li2  1  0.00000000  0.00000000  0.50000000  1.0
  Li  Li3  1  0.50000000  0.50000000  0.00000000  1.0
  Mn  Mn4  1  0.50000000  0.50000000  0.50000000  1.0
  Mn  Mn5  1  0.00000000  0.50000000  0.00000000  1.0
  Co  Co6  1  0.00000000  0.50000000  0.50000000  1.0
  Co  Co7  1  0.00000000  0.00000000  0.00000000  1.0
  O  O8  1  0.77664500  0.26767800  0.02331700  1.0
  O  O9  1  0.73984300  0.26636400  0.48652800  1.0
  O  O10  1  0.22016400  0.24668500  0.98652800  1.0
  O  O11  1  0.75563900  0.74667200  0.52331700  1.0
  O  O12  1  0.24436100  0.25332800  0.47668300  1.0
  O  O13  1  0.77983600  0.75331500  0.01347200  1.0
  O  O14  1  0.26015700  0.73363600  0.51347200  1.0
  O  O15  1  0.22335500  0.73232200  0.97668300  1.0
