# generated using pymatgen
data_Li2NiF4
_symmetry_space_group_name_H-M   'P 1'
_cell_length_a   5.88205200
_cell_length_b   5.92233193
_cell_length_c   5.92233193
_cell_angle_alpha   61.01177534
_cell_angle_beta   60.22473337
_cell_angle_gamma   60.22473337
_symmetry_Int_Tables_number   1
_chemical_formula_structural   Li2NiF4
_chemical_formula_sum   'Li4 Ni2 F8'
_cell_volume   147.46882011
_cell_formula_units_Z   2
loop_
 _symmetry_equiv_pos_site_id
 _symmetry_equiv_pos_as_xyz
  1  'x, y, z'
loop_
 _atom_site_type_symbol
 _atom_site_label
 _atom_site_symmetry_multiplicity
 _atom_site_fract_x
 _atom_site_fract_y
 _atom_site_fract_z
 _atom_site_occupancy
  Li  Li0  1  0.86632200  0.38367800  0.88367800  1.0
  Li  Li1  1  0.50000000  0.00000000  0.50000000  1.0
  Li  Li2  1  0.00000000  1.00000000  0.50000000  1.0
  Li  Li3  1  0.13367800  0.61632200  0.11632200  1.0
  Ni  Ni4  1  0.50000000  1.00000000  1.00000000  1.0
  Ni  Ni5  1  0.50000000  0.50000000  0.50000000  1.0
  F  F6  1  0.27010800  0.24618800  0.74618800  1.0
  F  F7  1  0.73751600  0.24618800  0.74618800  1.0
  F  F8  1  0.73862200  0.24640600  0.27635000  1.0
  F  F9  1  0.73862300  0.77635000  0.74640500  1.0
  F  F10  1  0.26137700  0.22365000  0.25359500  1.0
  F  F11  1  0.26248400  0.75381200  0.25381200  1.0
  F  F12  1  0.26137800  0.75359400  0.72365000  1.0
  F  F13  1  0.72989200  0.75381200  0.25381200  1.0
