# generated using pymatgen
data_Li2Pr2Ge3
_symmetry_space_group_name_H-M   'P 1'
_cell_length_a   4.48133800
_cell_length_b   7.00336100
_cell_length_c   9.70742698
_cell_angle_alpha   90.00000000
_cell_angle_beta   103.34535765
_cell_angle_gamma   90.00000000
_symmetry_Int_Tables_number   1
_chemical_formula_structural   Li2Pr2Ge3
_chemical_formula_sum   'Li4 Pr4 Ge6'
_cell_volume   296.43508469
_cell_formula_units_Z   2
loop_
 _symmetry_equiv_pos_site_id
 _symmetry_equiv_pos_as_xyz
  1  'x, y, z'
loop_
 _atom_site_type_symbol
 _atom_site_label
 _atom_site_symmetry_multiplicity
 _atom_site_fract_x
 _atom_site_fract_y
 _atom_site_fract_z
 _atom_site_occupancy
  Li  Li0  1  0.80957200  0.43814500  0.61914400  1.0
  Li  Li1  1  0.19042800  0.56185500  0.38085600  1.0
  Li  Li2  1  0.80957200  0.06185500  0.61914400  1.0
  Li  Li3  1  0.19042800  0.93814500  0.38085600  1.0
  Pr  Pr4  1  0.55190900  0.75000000  0.10381800  1.0
  Pr  Pr5  1  0.44809100  0.25000000  0.89618200  1.0
  Pr  Pr6  1  0.34191500  0.75000000  0.68383000  1.0
  Pr  Pr7  1  0.65808500  0.25000000  0.31617000  1.0
  Ge  Ge8  1  0.93855900  0.93136800  0.87711800  1.0
  Ge  Ge9  1  0.06144100  0.06863200  0.12288200  1.0
  Ge  Ge10  1  0.93855900  0.56863200  0.87711800  1.0
  Ge  Ge11  1  0.06144100  0.43136800  0.12288200  1.0
  Ge  Ge12  1  0.71989300  0.75000000  0.43978600  1.0
  Ge  Ge13  1  0.28010700  0.25000000  0.56021400  1.0
