# generated using pymatgen
data_Li2Sm2Si3
_symmetry_space_group_name_H-M   'P 1'
_cell_length_a   4.35586000
_cell_length_b   6.76596900
_cell_length_c   9.41602413
_cell_angle_alpha   90.00000000
_cell_angle_beta   103.37364289
_cell_angle_gamma   90.00000000
_symmetry_Int_Tables_number   1
_chemical_formula_structural   Li2Sm2Si3
_chemical_formula_sum   'Li4 Sm4 Si6'
_cell_volume   269.98014031
_cell_formula_units_Z   2
loop_
 _symmetry_equiv_pos_site_id
 _symmetry_equiv_pos_as_xyz
  1  'x, y, z'
loop_
 _atom_site_type_symbol
 _atom_site_label
 _atom_site_symmetry_multiplicity
 _atom_site_fract_x
 _atom_site_fract_y
 _atom_site_fract_z
 _atom_site_occupancy
  Li  Li0  1  0.80976300  0.55963300  0.61952600  1.0
  Li  Li1  1  0.19023700  0.44036700  0.38047400  1.0
  Li  Li2  1  0.19023700  0.05963300  0.38047400  1.0
  Li  Li3  1  0.80976300  0.94036700  0.61952600  1.0
  Sm  Sm4  1  0.55225800  0.25000000  0.10451600  1.0
  Sm  Sm5  1  0.44774200  0.75000000  0.89548400  1.0
  Sm  Sm6  1  0.34277500  0.25000000  0.68555000  1.0
  Sm  Sm7  1  0.65722500  0.75000000  0.31445000  1.0
  Si  Si8  1  0.94111300  0.07278800  0.88222600  1.0
  Si  Si9  1  0.05888700  0.92721200  0.11777400  1.0
  Si  Si10  1  0.05888700  0.57278800  0.11777400  1.0
  Si  Si11  1  0.94111300  0.42721200  0.88222600  1.0
  Si  Si12  1  0.71953800  0.25000000  0.43907600  1.0
  Si  Si13  1  0.28046200  0.75000000  0.56092400  1.0
