# generated using pymatgen
data_Li2Si2O5
_symmetry_space_group_name_H-M   'P 1'
_cell_length_a   4.84283400
_cell_length_b   5.88767800
_cell_length_c   7.96359421
_cell_angle_alpha   111.69477995
_cell_angle_beta   90.00000000
_cell_angle_gamma   90.00000000
_symmetry_Int_Tables_number   1
_chemical_formula_structural   Li2Si2O5
_chemical_formula_sum   'Li4 Si4 O10'
_cell_volume   210.98237840
_cell_formula_units_Z   2
loop_
 _symmetry_equiv_pos_site_id
 _symmetry_equiv_pos_as_xyz
  1  'x, y, z'
loop_
 _atom_site_type_symbol
 _atom_site_label
 _atom_site_symmetry_multiplicity
 _atom_site_fract_x
 _atom_site_fract_y
 _atom_site_fract_z
 _atom_site_occupancy
  Li  Li0  1  0.40345200  0.90497400  0.11553100  1.0
  Li  Li1  1  0.90345200  0.78944300  0.88446900  1.0
  Li  Li2  1  0.90345200  0.21055700  0.11553100  1.0
  Li  Li3  1  0.40345200  0.09502600  0.88446900  1.0
  Si  Si4  1  0.90671900  0.80386500  0.29649400  1.0
  Si  Si5  1  0.90671900  0.19613500  0.70350600  1.0
  Si  Si6  1  0.40671900  0.49262900  0.29649400  1.0
  Si  Si7  1  0.40671900  0.50737100  0.70350600  1.0
  O  O8  1  0.49896800  0.24071600  0.14341700  1.0
  O  O9  1  0.99896800  0.09729900  0.85658300  1.0
  O  O10  1  0.46280700  0.50000000  0.50000000  1.0
  O  O11  1  0.49896800  0.75928400  0.85658300  1.0
  O  O12  1  0.96280700  1.00000000  0.50000000  1.0
  O  O13  1  0.07291300  0.45433200  0.72472000  1.0
  O  O14  1  0.57291300  0.72961200  0.27528000  1.0
  O  O15  1  0.57291300  0.27038800  0.72472000  1.0
  O  O16  1  0.07291300  0.54566800  0.27528000  1.0
  O  O17  1  0.99896800  0.90270100  0.14341700  1.0
