# generated using pymatgen
data_Li2TiFe2O5
_symmetry_space_group_name_H-M   'P 1'
_cell_length_a   5.13843631
_cell_length_b   5.14288680
_cell_length_c   7.89159801
_cell_angle_alpha   71.02695914
_cell_angle_beta   83.75838813
_cell_angle_gamma   70.36400660
_symmetry_Int_Tables_number   1
_chemical_formula_structural   Li2TiFe2O5
_chemical_formula_sum   'Li4 Ti2 Fe4 O10'
_cell_volume   185.74765426
_cell_formula_units_Z   2
loop_
 _symmetry_equiv_pos_site_id
 _symmetry_equiv_pos_as_xyz
  1  'x, y, z'
loop_
 _atom_site_type_symbol
 _atom_site_label
 _atom_site_symmetry_multiplicity
 _atom_site_fract_x
 _atom_site_fract_y
 _atom_site_fract_z
 _atom_site_occupancy
  Li  Li0  1  0.49957600  0.90177900  0.19768200  1.0
  Li  Li1  1  0.49709700  0.49760900  0.00393700  1.0
  Li  Li2  1  0.00161100  0.39931500  0.19970400  1.0
  Li  Li3  1  0.00156700  0.20078300  0.59361300  1.0
  Ti  Ti4  1  0.49862200  0.30874300  0.38869200  1.0
  Ti  Ti5  1  0.99822300  0.99767900  0.01161200  1.0
  Fe  Fe6  1  0.50385900  0.69781000  0.60589200  1.0
  Fe  Fe7  1  0.99551100  0.80174000  0.39308100  1.0
  Fe  Fe8  1  0.99795600  0.60076100  0.79608400  1.0
  Fe  Fe9  1  0.50128500  0.09326700  0.80435900  1.0
  O  O10  1  0.75370800  0.33867600  0.81137400  1.0
  O  O11  1  0.25181400  0.44401700  0.59027700  1.0
  O  O12  1  0.74363900  0.15693800  0.19824900  1.0
  O  O13  1  0.74634600  0.97335600  0.58824400  1.0
  O  O14  1  0.24262900  0.85201200  0.81262500  1.0
  O  O15  1  0.23265600  0.23133000  0.00199900  1.0
  O  O16  1  0.27105400  0.05674200  0.40350400  1.0
  O  O17  1  0.77254300  0.76355100  0.99960900  1.0
  O  O18  1  0.73471700  0.53907700  0.39978600  1.0
  O  O19  1  0.25558800  0.64481500  0.19967700  1.0
