# generated using pymatgen
data_Li2V3CuO8
_symmetry_space_group_name_H-M   'P 1'
_cell_length_a   5.91316146
_cell_length_b   5.91316146
_cell_length_c   5.97858056
_cell_angle_alpha   60.36131036
_cell_angle_beta   60.36131036
_cell_angle_gamma   60.00000606
_symmetry_Int_Tables_number   1
_chemical_formula_structural   Li2V3CuO8
_chemical_formula_sum   'Li2 V3 Cu1 O8'
_cell_volume   148.61850585
_cell_formula_units_Z   1
loop_
 _symmetry_equiv_pos_site_id
 _symmetry_equiv_pos_as_xyz
  1  'x, y, z'
loop_
 _atom_site_type_symbol
 _atom_site_label
 _atom_site_symmetry_multiplicity
 _atom_site_fract_x
 _atom_site_fract_y
 _atom_site_fract_z
 _atom_site_occupancy
  Li  Li0  1  0.87581100  0.87581100  0.37256700  1.0
  Li  Li1  1  0.12418900  0.12418900  0.62743300  1.0
  V  V2  1  0.50000000  0.50000000  0.00000000  1.0
  V  V3  1  0.50000000  1.00000000  0.00000000  1.0
  V  V4  1  0.00000000  0.50000000  0.00000000  1.0
  Cu  Cu5  1  0.50000000  0.50000000  0.50000000  1.0
  O  O6  1  0.73941100  0.73941100  0.78176700  1.0
  O  O7  1  0.28743800  0.74884500  0.21487200  1.0
  O  O8  1  0.74884500  0.28743800  0.21487200  1.0
  O  O9  1  0.74884500  0.74884500  0.21487200  1.0
  O  O10  1  0.25115500  0.25115500  0.78512800  1.0
  O  O11  1  0.25115500  0.71256200  0.78512800  1.0
  O  O12  1  0.71256200  0.25115500  0.78512800  1.0
  O  O13  1  0.26058900  0.26058900  0.21823300  1.0
