# generated using pymatgen
data_Li2VCrO4
_symmetry_space_group_name_H-M   'P 1'
_cell_length_a   2.97075000
_cell_length_b   5.22363252
_cell_length_c   9.90193538
_cell_angle_alpha   95.55520581
_cell_angle_beta   98.62742223
_cell_angle_gamma   90.00000000
_symmetry_Int_Tables_number   1
_chemical_formula_structural   Li2VCrO4
_chemical_formula_sum   'Li4 V2 Cr2 O8'
_cell_volume   151.19060749
_cell_formula_units_Z   2
loop_
 _symmetry_equiv_pos_site_id
 _symmetry_equiv_pos_as_xyz
  1  'x, y, z'
loop_
 _atom_site_type_symbol
 _atom_site_label
 _atom_site_symmetry_multiplicity
 _atom_site_fract_x
 _atom_site_fract_y
 _atom_site_fract_z
 _atom_site_occupancy
  Li  Li0  1  0.00000000  0.00000000  0.00000000  1.0
  Li  Li1  1  0.25045700  0.74639900  0.50091400  1.0
  Li  Li2  1  0.50000000  0.50000000  0.00000000  1.0
  Li  Li3  1  0.74954300  0.25360100  0.49908600  1.0
  V  V4  1  0.62510100  0.87502700  0.25020200  1.0
  V  V5  1  0.37489900  0.12497300  0.74979800  1.0
  Cr  Cr6  1  0.12484100  0.37493400  0.24968200  1.0
  Cr  Cr7  1  0.87515900  0.62506600  0.75031800  1.0
  O  O8  1  0.06849400  0.68729600  0.13698800  1.0
  O  O9  1  0.81833100  0.93655500  0.63666200  1.0
  O  O10  1  0.43176300  0.80679400  0.86352600  1.0
  O  O11  1  0.31843300  0.44379800  0.63686600  1.0
  O  O12  1  0.68156700  0.55620200  0.36313400  1.0
  O  O13  1  0.18166900  0.06344500  0.36333800  1.0
  O  O14  1  0.93150600  0.31270400  0.86301200  1.0
  O  O15  1  0.56823700  0.19320600  0.13647400  1.0
