# generated using pymatgen
data_Li2V4CrCuO12
_symmetry_space_group_name_H-M   'P 1'
_cell_length_a   5.65040428
_cell_length_b   6.92401092
_cell_length_c   6.92377547
_cell_angle_alpha   76.54208508
_cell_angle_beta   72.22576311
_cell_angle_gamma   72.22556126
_symmetry_Int_Tables_number   1
_chemical_formula_structural   Li2V4CrCuO12
_chemical_formula_sum   'Li2 V4 Cr1 Cu1 O12'
_cell_volume   242.71306313
_cell_formula_units_Z   1
loop_
 _symmetry_equiv_pos_site_id
 _symmetry_equiv_pos_as_xyz
  1  'x, y, z'
loop_
 _atom_site_type_symbol
 _atom_site_label
 _atom_site_symmetry_multiplicity
 _atom_site_fract_x
 _atom_site_fract_y
 _atom_site_fract_z
 _atom_site_occupancy
  Li  Li0  1  0.24999600  0.26514700  0.73487100  1.0
  Li  Li1  1  0.74999900  0.71809100  0.28193900  1.0
  V  V2  1  0.70808300  0.61401600  0.83452900  1.0
  V  V3  1  0.23295600  0.81695000  0.62225900  1.0
  V  V4  1  0.79198600  0.16541100  0.38607400  1.0
  V  V5  1  0.26700800  0.37776900  0.18308000  1.0
  Cr  Cr6  1  0.74987800  0.07320400  0.92684300  1.0
  Cu  Cu7  1  0.25025100  0.89236200  0.10744700  1.0
  O  O8  1  0.66909100  0.79794600  0.00006000  1.0
  O  O9  1  0.81503300  0.34809300  0.88378900  1.0
  O  O10  1  0.13178800  0.98153000  0.80572100  1.0
  O  O11  1  0.56973900  0.70950700  0.59132600  1.0
  O  O12  1  0.68482000  0.11611400  0.65199400  1.0
  O  O13  1  0.06407500  0.62931200  0.68400000  1.0
  O  O14  1  0.93023200  0.40864200  0.29057700  1.0
  O  O15  1  0.17105700  0.97232200  0.39664600  1.0
  O  O16  1  0.43598100  0.31604200  0.37064700  1.0
  O  O17  1  0.83096000  0.99998600  0.20207200  1.0
  O  O18  1  0.32893400  0.60331100  0.02759300  1.0
  O  O19  1  0.36813200  0.19424700  0.01852900  1.0
