# generated using pymatgen
data_Li2VF6
_symmetry_space_group_name_H-M   'P 1'
_cell_length_a   5.39654252
_cell_length_b   5.39654252
_cell_length_c   9.94546386
_cell_angle_alpha   88.12654144
_cell_angle_beta   88.12654144
_cell_angle_gamma   61.27650003
_symmetry_Int_Tables_number   1
_chemical_formula_structural   Li2VF6
_chemical_formula_sum   'Li4 V2 F12'
_cell_volume   253.81478777
_cell_formula_units_Z   2
loop_
 _symmetry_equiv_pos_site_id
 _symmetry_equiv_pos_as_xyz
  1  'x, y, z'
loop_
 _atom_site_type_symbol
 _atom_site_label
 _atom_site_symmetry_multiplicity
 _atom_site_fract_x
 _atom_site_fract_y
 _atom_site_fract_z
 _atom_site_occupancy
  Li  Li0  1  0.27610500  0.50844200  0.04272500  1.0
  Li  Li1  1  0.65313900  0.98207500  0.82951900  1.0
  Li  Li2  1  0.98207500  0.65313900  0.32951900  1.0
  Li  Li3  1  0.50844200  0.27610500  0.54272500  1.0
  V  V4  1  0.32948400  0.97019400  0.15370800  1.0
  V  V5  1  0.97019400  0.32948400  0.65370800  1.0
  F  F6  1  0.55618800  0.59434700  0.09774600  1.0
  F  F7  1  0.11367400  0.45083100  0.49610400  1.0
  F  F8  1  0.62062600  0.93404000  0.25985100  1.0
  F  F9  1  0.93404000  0.62062600  0.75985100  1.0
  F  F10  1  0.18424900  0.85602400  0.30229700  1.0
  F  F11  1  0.05768700  0.95592900  0.05381800  1.0
  F  F12  1  0.95592900  0.05768700  0.55381800  1.0
  F  F13  1  0.85602400  0.18424900  0.80229700  1.0
  F  F14  1  0.12492500  0.36980000  0.19342800  1.0
  F  F15  1  0.36980000  0.12492500  0.69342800  1.0
  F  F16  1  0.45083100  0.11367400  0.99610400  1.0
  F  F17  1  0.59434700  0.55618800  0.59774600  1.0
