# generated using pymatgen
data_Li2VFeO4
_symmetry_space_group_name_H-M   'P 1'
_cell_length_a   5.86138882
_cell_length_b   5.89441631
_cell_length_c   5.92162723
_cell_angle_alpha   119.79764284
_cell_angle_beta   119.55388694
_cell_angle_gamma   90.04610271
_symmetry_Int_Tables_number   1
_chemical_formula_structural   Li2VFeO4
_chemical_formula_sum   'Li4 V2 Fe2 O8'
_cell_volume   146.01549520
_cell_formula_units_Z   2
loop_
 _symmetry_equiv_pos_site_id
 _symmetry_equiv_pos_as_xyz
  1  'x, y, z'
loop_
 _atom_site_type_symbol
 _atom_site_label
 _atom_site_symmetry_multiplicity
 _atom_site_fract_x
 _atom_site_fract_y
 _atom_site_fract_z
 _atom_site_occupancy
  Li  Li0  1  0.99874800  0.49887400  0.99858900  1.0
  Li  Li1  1  0.49952100  0.49888300  0.49911100  1.0
  Li  Li2  1  0.49959100  0.49877200  0.99834000  1.0
  Li  Li3  1  0.49877700  0.99758000  0.49771500  1.0
  V  V4  1  0.99953500  0.49934900  0.49918700  1.0
  V  V5  1  0.99950600  0.99934200  0.49914600  1.0
  Fe  Fe6  1  0.99916100  0.99947700  0.99952700  1.0
  Fe  Fe7  1  0.49967800  0.99897300  0.99902700  1.0
  O  O8  1  0.22706300  0.23383500  0.47258100  1.0
  O  O9  1  0.75133600  0.23653600  0.01184300  1.0
  O  O10  1  0.76491800  0.25094900  0.50696000  1.0
  O  O11  1  0.25151800  0.22387800  0.99750800  1.0
  O  O12  1  0.74738600  0.77458500  0.00053700  1.0
  O  O13  1  0.23399300  0.74751300  0.49097400  1.0
  O  O14  1  0.24761400  0.76201600  0.98628400  1.0
  O  O15  1  0.77186100  0.76478800  0.52559700  1.0
