# generated using pymatgen
data_Li2VF6
_symmetry_space_group_name_H-M   'P 1'
_cell_length_a   6.05561200
_cell_length_b   6.39442900
_cell_length_c   6.39442900
_cell_angle_alpha   90.00000000
_cell_angle_beta   90.00000000
_cell_angle_gamma   90.00000000
_symmetry_Int_Tables_number   1
_chemical_formula_structural   Li2VF6
_chemical_formula_sum   'Li4 V2 F12'
_cell_volume   247.60623704
_cell_formula_units_Z   2
loop_
 _symmetry_equiv_pos_site_id
 _symmetry_equiv_pos_as_xyz
  1  'x, y, z'
loop_
 _atom_site_type_symbol
 _atom_site_label
 _atom_site_symmetry_multiplicity
 _atom_site_fract_x
 _atom_site_fract_y
 _atom_site_fract_z
 _atom_site_occupancy
  Li  Li0  1  0.75000000  0.00000000  0.50000000  1.0
  Li  Li1  1  0.25000000  0.00000000  0.50000000  1.0
  Li  Li2  1  0.75000000  0.50000000  0.00000000  1.0
  Li  Li3  1  0.25000000  0.50000000  0.00000000  1.0
  V  V4  1  0.50000000  0.50000000  0.50000000  1.0
  V  V5  1  0.00000000  0.00000000  0.00000000  1.0
  F  F6  1  0.00000000  0.96961400  0.69829200  1.0
  F  F7  1  0.50000000  0.80170800  0.53038600  1.0
  F  F8  1  0.79570200  0.50000000  0.50000000  1.0
  F  F9  1  0.20429800  0.50000000  0.50000000  1.0
  F  F10  1  0.00000000  0.30170800  0.96961400  1.0
  F  F11  1  0.50000000  0.46961400  0.80170800  1.0
  F  F12  1  1.00000000  0.69829200  0.03038600  1.0
  F  F13  1  0.50000000  0.53038600  0.19829200  1.0
  F  F14  1  0.29570200  0.00000000  0.00000000  1.0
  F  F15  1  0.70429800  0.00000000  0.00000000  1.0
  F  F16  1  0.00000000  0.03038600  0.30170800  1.0
  F  F17  1  0.50000000  0.19829200  0.46961400  1.0
