# generated using pymatgen
data_Li2ZnGe
_symmetry_space_group_name_H-M   'P 1'
_cell_length_a   4.31201600
_cell_length_b   4.31201566
_cell_length_c   8.27269800
_cell_angle_alpha   90.00000000
_cell_angle_beta   90.00000000
_cell_angle_gamma   120.00000264
_symmetry_Int_Tables_number   1
_chemical_formula_structural   Li2ZnGe
_chemical_formula_sum   'Li4 Zn2 Ge2'
_cell_volume   133.21050787
_cell_formula_units_Z   2
loop_
 _symmetry_equiv_pos_site_id
 _symmetry_equiv_pos_as_xyz
  1  'x, y, z'
loop_
 _atom_site_type_symbol
 _atom_site_label
 _atom_site_symmetry_multiplicity
 _atom_site_fract_x
 _atom_site_fract_y
 _atom_site_fract_z
 _atom_site_occupancy
  Ge  Ge12  1  0.33333333  0.66666667  0.74987300  1.0
  Ge  Ge14  1  0.66666667  0.33333333  0.25012700  1.0
  Li  Li0  1  0.66666667  0.33333333  0.58267600  1.0
  Li  Li1  1  0.66666667  0.33333333  0.91582200  1.0
  Li  Li2  1  0.33333333  0.66666667  0.41732400  1.0
  Li  Li3  1  0.33333333  0.66666667  0.08417800  1.0
  Zn  Zn8  1  0.00000000  0.00000000  0.74902800  1.0
  Zn  Zn10  1  0.00000000  0.00000000  0.25097200  1.0
