# generated using pymatgen
data_Li3BiS3
_symmetry_space_group_name_H-M   'P 1'
_cell_length_a   6.87589824
_cell_length_b   6.87589824
_cell_length_c   6.87589796
_cell_angle_alpha   105.21972041
_cell_angle_beta   105.21972041
_cell_angle_gamma   105.21972832
_symmetry_Int_Tables_number   1
_chemical_formula_structural   Li3BiS3
_chemical_formula_sum   'Li6 Bi2 S6'
_cell_volume   282.84878495
_cell_formula_units_Z   2
loop_
 _symmetry_equiv_pos_site_id
 _symmetry_equiv_pos_as_xyz
  1  'x, y, z'
loop_
 _atom_site_type_symbol
 _atom_site_label
 _atom_site_symmetry_multiplicity
 _atom_site_fract_x
 _atom_site_fract_y
 _atom_site_fract_z
 _atom_site_occupancy
  Li  Li0  1  0.52541100  0.90168300  0.30375800  1.0
  Li  Li1  1  0.02541100  0.80375800  0.40168300  1.0
  Li  Li2  1  0.40168300  0.02541100  0.80375800  1.0
  Li  Li3  1  0.90168300  0.30375800  0.52541100  1.0
  Li  Li4  1  0.30375800  0.52541100  0.90168300  1.0
  Li  Li5  1  0.80375800  0.40168300  0.02541100  1.0
  Bi  Bi6  1  0.48490700  0.48490700  0.48490700  1.0
  Bi  Bi7  1  0.98490700  0.98490700  0.98490700  1.0
  S  S8  1  0.70686700  0.71956100  0.07389300  1.0
  S  S9  1  0.20686700  0.57389300  0.21956100  1.0
  S  S10  1  0.57389300  0.21956100  0.20686700  1.0
  S  S11  1  0.07389300  0.70686700  0.71956100  1.0
  S  S12  1  0.21956100  0.20686700  0.57389300  1.0
  S  S13  1  0.71956100  0.07389300  0.70686700  1.0
