# generated using pymatgen
data_Li3CrO4
_symmetry_space_group_name_H-M   'P 1'
_cell_length_a   5.15087932
_cell_length_b   5.43654074
_cell_length_c   7.82545425
_cell_angle_alpha   82.92628757
_cell_angle_beta   71.83349793
_cell_angle_gamma   64.24148534
_symmetry_Int_Tables_number   1
_chemical_formula_structural   Li3CrO4
_chemical_formula_sum   'Li6 Cr2 O8'
_cell_volume   187.50410302
_cell_formula_units_Z   2
loop_
 _symmetry_equiv_pos_site_id
 _symmetry_equiv_pos_as_xyz
  1  'x, y, z'
loop_
 _atom_site_type_symbol
 _atom_site_label
 _atom_site_symmetry_multiplicity
 _atom_site_fract_x
 _atom_site_fract_y
 _atom_site_fract_z
 _atom_site_occupancy
  Li  Li0  1  0.77821600  0.70367700  0.80445400  1.0
  Li  Li1  1  0.01999400  0.20668500  0.54171600  1.0
  Li  Li2  1  0.97021800  0.70254800  0.46494100  1.0
  Li  Li3  1  0.53469500  0.27566400  0.42147700  1.0
  Li  Li4  1  0.20571300  0.32552200  0.17288000  1.0
  Li  Li5  1  0.19333300  0.79959700  0.00505900  1.0
  Cr  Cr6  1  0.41139000  0.28579600  0.77163100  1.0
  Cr  Cr7  1  0.59002400  0.72368100  0.23654400  1.0
  O  O8  1  0.27617500  0.12132900  0.95156400  1.0
  O  O9  1  0.50652400  0.52570700  0.81682000  1.0
  O  O10  1  0.73367100  0.03588400  0.62458600  1.0
  O  O11  1  0.16130700  0.43341800  0.63723000  1.0
  O  O12  1  0.80192000  0.48108100  0.36623900  1.0
  O  O13  1  0.40290800  0.04396900  0.33539000  1.0
  O  O14  1  0.31405800  0.62339800  0.23410000  1.0
  O  O15  1  0.84493700  0.72464600  0.03637900  1.0
