# generated using pymatgen
data_Li3Fe2CoO6
_symmetry_space_group_name_H-M   'P 1'
_cell_length_a   5.07446910
_cell_length_b   5.07538247
_cell_length_c   5.14555043
_cell_angle_alpha   80.58730272
_cell_angle_beta   70.90439970
_cell_angle_gamma   60.00597191
_symmetry_Int_Tables_number   1
_chemical_formula_structural   Li3Fe2CoO6
_chemical_formula_sum   'Li3 Fe2 Co1 O6'
_cell_volume   108.45956689
_cell_formula_units_Z   1
loop_
 _symmetry_equiv_pos_site_id
 _symmetry_equiv_pos_as_xyz
  1  'x, y, z'
loop_
 _atom_site_type_symbol
 _atom_site_label
 _atom_site_symmetry_multiplicity
 _atom_site_fract_x
 _atom_site_fract_y
 _atom_site_fract_z
 _atom_site_occupancy
  Li  Li0  1  0.32625700  0.34748500  0.00000000  1.0
  Li  Li1  1  0.66666667  0.66666667  0.99999900  1.0
  Li  Li2  1  0.00710800  0.98578800  0.99999800  1.0
  Fe  Fe3  1  0.49960200  0.00078700  0.50000100  1.0
  Fe  Fe4  1  0.83372700  0.33253600  0.50000700  1.0
  Co  Co5  1  0.16667533  0.66666667  0.50000000  1.0
  O  O6  1  0.41356333  0.66666667  0.72446700  1.0
  O  O7  1  0.76995500  0.98805600  0.72663800  1.0
  O  O8  1  0.09132900  0.34530200  0.72662700  1.0
  O  O9  1  0.56336800  0.34530400  0.27337300  1.0
  O  O10  1  0.91979033  0.66666667  0.27553100  1.0
  O  O11  1  0.24199300  0.98805400  0.27336000  1.0
