# generated using pymatgen
data_Li3FeO4
_symmetry_space_group_name_H-M   'P 1'
_cell_length_a   2.89161291
_cell_length_b   5.03878365
_cell_length_c   5.04065784
_cell_angle_alpha   72.51006405
_cell_angle_beta   89.80507275
_cell_angle_gamma   89.61622605
_symmetry_Int_Tables_number   1
_chemical_formula_structural   Li3FeO4
_chemical_formula_sum   'Li3 Fe1 O4'
_cell_volume   70.04649830
_cell_formula_units_Z   1
loop_
 _symmetry_equiv_pos_site_id
 _symmetry_equiv_pos_as_xyz
  1  'x, y, z'
loop_
 _atom_site_type_symbol
 _atom_site_label
 _atom_site_symmetry_multiplicity
 _atom_site_fract_x
 _atom_site_fract_y
 _atom_site_fract_z
 _atom_site_occupancy
  Li  Li0  1  0.99463800  0.99975000  0.00340100  1.0
  Li  Li1  1  0.49313700  0.99421500  0.49625600  1.0
  Li  Li2  1  0.99692800  0.49510500  0.50345200  1.0
  Fe  Fe3  1  0.49235300  0.50128100  0.00161600  1.0
  O  O4  1  0.99013600  0.73024000  0.77176100  1.0
  O  O5  1  0.48899600  0.72843600  0.23163900  1.0
  O  O6  1  0.99364900  0.27029000  0.23305200  1.0
  O  O7  1  0.49738800  0.27123100  0.77468300  1.0
