# generated using pymatgen
data_Li3Mn4O8
_symmetry_space_group_name_H-M   'P 1'
_cell_length_a   5.77976950
_cell_length_b   5.81210056
_cell_length_c   6.05457185
_cell_angle_alpha   118.46548033
_cell_angle_beta   118.09885605
_cell_angle_gamma   90.29187755
_symmetry_Int_Tables_number   1
_chemical_formula_structural   Li3Mn4O8
_chemical_formula_sum   'Li3 Mn4 O8'
_cell_volume   150.65550390
_cell_formula_units_Z   1
loop_
 _symmetry_equiv_pos_site_id
 _symmetry_equiv_pos_as_xyz
  1  'x, y, z'
loop_
 _atom_site_type_symbol
 _atom_site_label
 _atom_site_symmetry_multiplicity
 _atom_site_fract_x
 _atom_site_fract_y
 _atom_site_fract_z
 _atom_site_occupancy
  Li  Li0  1  0.50000000  0.50000100  0.00000100  1.0
  Li  Li1  1  0.00000000  0.00000000  0.50000000  1.0
  Li  Li2  1  0.00000000  0.50000100  0.50000100  1.0
  Mn  Mn3  1  0.49999700  0.99998900  0.99999300  1.0
  Mn  Mn4  1  0.50000100  0.50000100  0.50000400  1.0
  Mn  Mn5  1  0.99999800  0.99999800  1.00000000  1.0
  Mn  Mn6  1  0.50000500  1.00000000  0.49999600  1.0
  O  O7  1  0.70303900  0.21865500  0.43813700  1.0
  O  O8  1  0.29696000  0.78134700  0.56186400  1.0
  O  O9  1  0.71861500  0.74364700  0.48837900  1.0
  O  O10  1  0.28138400  0.25635600  0.51162300  1.0
  O  O11  1  0.25270500  0.77417800  0.99449200  1.0
  O  O12  1  0.25258600  0.22036900  0.99489300  1.0
  O  O13  1  0.74741600  0.77963600  0.00510900  1.0
  O  O14  1  0.74729500  0.22582400  0.00550900  1.0
