# generated using pymatgen
data_Li3Rh
_symmetry_space_group_name_H-M   'P 1'
_cell_length_a   4.48102500
_cell_length_b   5.35975200
_cell_length_c   5.35975253
_cell_angle_alpha   60.00000326
_cell_angle_beta   90.00000000
_cell_angle_gamma   90.00000000
_symmetry_Int_Tables_number   1
_chemical_formula_structural   Li3Rh
_chemical_formula_sum   'Li6 Rh2'
_cell_volume   111.48012473
_cell_formula_units_Z   2
loop_
 _symmetry_equiv_pos_site_id
 _symmetry_equiv_pos_as_xyz
  1  'x, y, z'
loop_
 _atom_site_type_symbol
 _atom_site_label
 _atom_site_symmetry_multiplicity
 _atom_site_fract_x
 _atom_site_fract_y
 _atom_site_fract_z
 _atom_site_occupancy
  Li  Li0  1  0.75000000  0.65111500  0.17444200  1.0
  Li  Li1  1  0.75000000  0.17444300  0.17444200  1.0
  Li  Li2  1  0.75000000  0.17444300  0.65111400  1.0
  Li  Li3  1  0.25000000  0.34888500  0.82555800  1.0
  Li  Li4  1  0.25000000  0.82555700  0.82555800  1.0
  Li  Li5  1  0.25000000  0.82555700  0.34888600  1.0
  Rh  Rh6  1  0.25000000  0.33333333  0.33333333  1.0
  Rh  Rh7  1  0.75000000  0.66666667  0.66666667  1.0
