# generated using pymatgen
data_Li3TiCr2O6
_symmetry_space_group_name_H-M   'P 1'
_cell_length_a   2.95374015
_cell_length_b   5.99384005
_cell_length_c   6.65751480
_cell_angle_alpha   103.70184715
_cell_angle_beta   102.81673377
_cell_angle_gamma   89.99999292
_symmetry_Int_Tables_number   1
_chemical_formula_structural   Li3TiCr2O6
_chemical_formula_sum   'Li3 Ti1 Cr2 O6'
_cell_volume   111.48697568
_cell_formula_units_Z   1
loop_
 _symmetry_equiv_pos_site_id
 _symmetry_equiv_pos_as_xyz
  1  'x, y, z'
loop_
 _atom_site_type_symbol
 _atom_site_label
 _atom_site_symmetry_multiplicity
 _atom_site_fract_x
 _atom_site_fract_y
 _atom_site_fract_z
 _atom_site_occupancy
  Li  Li0  1  0.33333300  0.16666800  0.66666400  1.0
  Li  Li1  1  0.00173000  0.49643500  0.00345700  1.0
  Li  Li2  1  0.66493900  0.83689800  0.32987500  1.0
  Ti  Ti3  1  0.33333533  0.66666467  0.66666867  1.0
  Cr  Cr4  1  0.99888600  0.99931900  0.99779900  1.0
  Cr  Cr5  1  0.66777300  0.33401300  0.33554500  1.0
  O  O6  1  0.49577400  0.76226200  0.99154000  1.0
  O  O7  1  0.16014100  0.09903700  0.32027000  1.0
  O  O8  1  0.17089500  0.57107200  0.34179000  1.0
  O  O9  1  0.82965500  0.42128800  0.65930000  1.0
  O  O10  1  0.83701400  0.91204500  0.67403200  1.0
  O  O11  1  0.50652600  0.23429800  0.01306100  1.0
