# generated using pymatgen
data_Li3ZrNb(TeO6)2
_symmetry_space_group_name_H-M   'P 1'
_cell_length_a   5.21592100
_cell_length_b   5.52569964
_cell_length_c   7.62222970
_cell_angle_alpha   94.04543397
_cell_angle_beta   89.75440606
_cell_angle_gamma   89.97238745
_symmetry_Int_Tables_number   1
_chemical_formula_structural   Li3ZrNb(TeO6)2
_chemical_formula_sum   'Li3 Zr1 Nb1 Te2 O12'
_cell_volume   219.13550987
_cell_formula_units_Z   1
loop_
 _symmetry_equiv_pos_site_id
 _symmetry_equiv_pos_as_xyz
  1  'x, y, z'
loop_
 _atom_site_type_symbol
 _atom_site_label
 _atom_site_symmetry_multiplicity
 _atom_site_fract_x
 _atom_site_fract_y
 _atom_site_fract_z
 _atom_site_occupancy
  Li  Li0  1  0.50217800  0.97562700  0.26278800  1.0
  Li  Li1  1  0.00010400  0.43078000  0.27701100  1.0
  Li  Li2  1  0.99591200  0.44522400  0.77593500  1.0
  Zr  Zr3  1  0.00075800  0.99344900  0.98926400  1.0
  Nb  Nb4  1  0.50105700  0.51111500  0.50936700  1.0
  Te  Te5  1  0.50127900  0.50195800  0.00370900  1.0
  Te  Te6  1  0.00189400  0.00265300  0.49671500  1.0
  O  O7  1  0.81768200  0.31565600  0.55338800  1.0
  O  O8  1  0.62018500  0.50678400  0.24945000  1.0
  O  O9  1  0.69639100  0.81220600  0.54896100  1.0
  O  O10  1  0.87522300  0.02223600  0.26153000  1.0
  O  O11  1  0.80196600  0.67483600  0.93297600  1.0
  O  O12  1  0.33139400  0.80687400  0.06314300  1.0
  O  O13  1  0.68692200  0.21131000  0.94433200  1.0
  O  O14  1  0.11337300  0.01438700  0.73110500  1.0
  O  O15  1  0.19543300  0.32932100  0.05761000  1.0
  O  O16  1  0.37449700  0.50663900  0.75227800  1.0
  O  O17  1  0.29733100  0.19835700  0.42749000  1.0
  O  O18  1  0.18642200  0.70018700  0.43314900  1.0
