# generated using pymatgen
data_Li4AlNi3O8
_symmetry_space_group_name_H-M   'P 1'
_cell_length_a   2.87954589
_cell_length_b   2.87954589
_cell_length_c   19.28429992
_cell_angle_alpha   85.71829544
_cell_angle_beta   85.71829544
_cell_angle_gamma   60.00000262
_symmetry_Int_Tables_number   1
_chemical_formula_structural   Li4AlNi3O8
_chemical_formula_sum   'Li4 Al1 Ni3 O8'
_cell_volume   137.96299541
_cell_formula_units_Z   1
loop_
 _symmetry_equiv_pos_site_id
 _symmetry_equiv_pos_as_xyz
  1  'x, y, z'
loop_
 _atom_site_type_symbol
 _atom_site_label
 _atom_site_symmetry_multiplicity
 _atom_site_fract_x
 _atom_site_fract_y
 _atom_site_fract_z
 _atom_site_occupancy
  Li  Li0  1  0.62528500  0.62528500  0.12414500  1.0
  Li  Li1  1  0.87504800  0.87504800  0.37485600  1.0
  Li  Li2  1  0.37471500  0.37471500  0.87585500  1.0
  Li  Li3  1  0.12495200  0.12495200  0.62514400  1.0
  Al  Al4  1  0.00000000  0.00000000  0.00000000  1.0
  Ni  Ni5  1  0.74992200  0.74992200  0.75023400  1.0
  Ni  Ni6  1  0.50000000  0.50000000  0.50000000  1.0
  Ni  Ni7  1  0.25007800  0.25007800  0.24976600  1.0
  O  O8  1  0.93553300  0.93553300  0.19340100  1.0
  O  O9  1  0.18559300  0.18559300  0.44322100  1.0
  O  O10  1  0.68416800  0.68416800  0.94749600  1.0
  O  O11  1  0.43567200  0.43567200  0.69298400  1.0
  O  O12  1  0.31583200  0.31583200  0.05250400  1.0
  O  O13  1  0.56432800  0.56432800  0.30701600  1.0
  O  O14  1  0.06446700  0.06446700  0.80659900  1.0
  O  O15  1  0.81440700  0.81440700  0.55677900  1.0
