# generated using pymatgen
data_Li4Mn2TeWO12
_symmetry_space_group_name_H-M   'P 1'
_cell_length_a   5.08222294
_cell_length_b   5.32417188
_cell_length_c   7.36001118
_cell_angle_alpha   93.66960859
_cell_angle_beta   89.96758853
_cell_angle_gamma   90.00767285
_symmetry_Int_Tables_number   1
_chemical_formula_structural   Li4Mn2TeWO12
_chemical_formula_sum   'Li4 Mn2 Te1 W1 O12'
_cell_volume   198.74345564
_cell_formula_units_Z   1
loop_
 _symmetry_equiv_pos_site_id
 _symmetry_equiv_pos_as_xyz
  1  'x, y, z'
loop_
 _atom_site_type_symbol
 _atom_site_label
 _atom_site_symmetry_multiplicity
 _atom_site_fract_x
 _atom_site_fract_y
 _atom_site_fract_z
 _atom_site_occupancy
  Li  Li0  1  0.00590100  0.42465500  0.28475200  1.0
  Li  Li1  1  0.49440300  0.93165600  0.78727700  1.0
  Li  Li2  1  0.99826200  0.43016500  0.78735200  1.0
  Li  Li3  1  0.50124900  0.92759400  0.28404800  1.0
  Mn  Mn4  1  0.00068600  0.99782400  0.50168500  1.0
  Mn  Mn5  1  0.49912900  0.49654500  0.00060500  1.0
  Te  Te6  1  0.50135700  0.49884700  0.50068500  1.0
  W  W7  1  0.99893600  0.99696200  0.00115100  1.0
  O  O8  1  0.30302000  0.19999900  0.42287600  1.0
  O  O9  1  0.11493500  0.01345100  0.74566900  1.0
  O  O10  1  0.31551100  0.81786000  0.04955100  1.0
  O  O11  1  0.19870300  0.70191100  0.42530500  1.0
  O  O12  1  0.80277400  0.69731600  0.93565200  1.0
  O  O13  1  0.37076200  0.52144000  0.74908700  1.0
  O  O14  1  0.62800100  0.51992000  0.24860200  1.0
  O  O15  1  0.18706500  0.31953100  0.04917600  1.0
  O  O16  1  0.82311700  0.32396500  0.55591600  1.0
  O  O17  1  0.69194300  0.19982500  0.93650600  1.0
  O  O18  1  0.88361700  0.01462700  0.24954400  1.0
  O  O19  1  0.68062800  0.82350400  0.55576300  1.0
