# generated using pymatgen
data_Li4MnCrO6
_symmetry_space_group_name_H-M   'P 1'
_cell_length_a   5.00451943
_cell_length_b   5.00452286
_cell_length_c   5.11410777
_cell_angle_alpha   99.89914310
_cell_angle_beta   99.90005629
_cell_angle_gamma   119.41151241
_symmetry_Int_Tables_number   1
_chemical_formula_structural   Li4MnCrO6
_chemical_formula_sum   'Li4 Mn1 Cr1 O6'
_cell_volume   104.89582256
_cell_formula_units_Z   1
loop_
 _symmetry_equiv_pos_site_id
 _symmetry_equiv_pos_as_xyz
  1  'x, y, z'
loop_
 _atom_site_type_symbol
 _atom_site_label
 _atom_site_symmetry_multiplicity
 _atom_site_fract_x
 _atom_site_fract_y
 _atom_site_fract_z
 _atom_site_occupancy
  Li  Li0  1  0.50160400  0.99839700  1.00000000  1.0
  Li  Li1  1  0.00330000  0.49669700  0.50000100  1.0
  Li  Li2  1  0.15872100  0.34127600  0.00000100  1.0
  Li  Li3  1  0.83813600  0.66186100  0.00000100  1.0
  Mn  Mn4  1  0.33210400  0.16789600  0.50000100  1.0
  Cr  Cr5  1  0.67075800  0.82923200  0.49999900  1.0
  O  O6  1  0.71653700  0.21781500  0.72729100  1.0
  O  O7  1  0.28219700  0.78347000  0.27271100  1.0
  O  O8  1  0.42936900  0.57077000  0.72779100  1.0
  O  O9  1  0.92922900  0.07063400  0.27220300  1.0
  O  O10  1  0.56371700  0.42566600  0.27750900  1.0
  O  O11  1  0.07432900  0.93628700  0.72249100  1.0
