# generated using pymatgen
data_Li4Mn3CoO8
_symmetry_space_group_name_H-M   'P 1'
_cell_length_a   5.34433926
_cell_length_b   5.80095400
_cell_length_c   6.04308101
_cell_angle_alpha   61.31677988
_cell_angle_beta   69.81405500
_cell_angle_gamma   90.00000000
_symmetry_Int_Tables_number   1
_chemical_formula_structural   Li4Mn3CoO8
_chemical_formula_sum   'Li4 Mn3 Co1 O8'
_cell_volume   151.11082999
_cell_formula_units_Z   1
loop_
 _symmetry_equiv_pos_site_id
 _symmetry_equiv_pos_as_xyz
  1  'x, y, z'
loop_
 _atom_site_type_symbol
 _atom_site_label
 _atom_site_symmetry_multiplicity
 _atom_site_fract_x
 _atom_site_fract_y
 _atom_site_fract_z
 _atom_site_occupancy
  Li  Li0  1  0.00000000  0.00000000  0.50000000  1.0
  Li  Li1  1  0.00000000  0.50000000  0.50000000  1.0
  Li  Li2  1  0.48574300  0.25168700  0.49662600  1.0
  Li  Li3  1  0.51425700  0.74831300  0.50337400  1.0
  Mn  Mn4  1  0.00000000  0.50000000  0.00000000  1.0
  Mn  Mn5  1  0.50000000  0.25057500  1.00000000  1.0
  Mn  Mn6  1  0.50000000  0.74942500  1.00000000  1.0
  Co  Co7  1  0.00000000  0.00000000  0.00000000  1.0
  O  O8  1  0.76902000  0.13768300  0.23874400  1.0
  O  O9  1  0.76902000  0.62357300  0.23874400  1.0
  O  O10  1  0.27612300  0.38447200  0.23105600  1.0
  O  O11  1  0.25197100  0.89609400  0.20781200  1.0
  O  O12  1  0.23098000  0.86231700  0.76125600  1.0
  O  O13  1  0.23098000  0.37642700  0.76125600  1.0
  O  O14  1  0.74802900  0.10390600  0.79218800  1.0
  O  O15  1  0.72387700  0.61552800  0.76894400  1.0
