# generated using pymatgen
data_Li4Mn3CoO8
_symmetry_space_group_name_H-M   'P 1'
_cell_length_a   5.40506271
_cell_length_b   5.45564022
_cell_length_c   5.69887406
_cell_angle_alpha   89.98410705
_cell_angle_beta   89.99036130
_cell_angle_gamma   64.77500256
_symmetry_Int_Tables_number   1
_chemical_formula_structural   Li4Mn3CoO8
_chemical_formula_sum   'Li4 Mn3 Co1 O8'
_cell_volume   152.02389890
_cell_formula_units_Z   1
loop_
 _symmetry_equiv_pos_site_id
 _symmetry_equiv_pos_as_xyz
  1  'x, y, z'
loop_
 _atom_site_type_symbol
 _atom_site_label
 _atom_site_symmetry_multiplicity
 _atom_site_fract_x
 _atom_site_fract_y
 _atom_site_fract_z
 _atom_site_occupancy
  Li  Li0  1  0.50000000  0.50000100  0.49999500  1.0
  Li  Li1  1  0.50000000  0.50000000  0.99999900  1.0
  Li  Li2  1  0.50001500  0.99997700  0.75312600  1.0
  Li  Li3  1  0.49998600  0.00002300  0.24686900  1.0
  Mn  Mn4  1  0.99999200  0.99999900  0.49999500  1.0
  Mn  Mn5  1  0.00001100  0.49999100  0.75081300  1.0
  Mn  Mn6  1  0.99999000  0.50000700  0.24917400  1.0
  Co  Co7  1  0.00000200  0.00000000  0.00000700  1.0
  O  O8  1  0.76548500  0.72489100  0.49997600  1.0
  O  O9  1  0.23451900  0.27510700  0.50002100  1.0
  O  O10  1  0.77222800  0.73195500  0.99996300  1.0
  O  O11  1  0.22777400  0.26804300  0.00003400  1.0
  O  O12  1  0.76966700  0.22370300  0.75359000  1.0
  O  O13  1  0.76967700  0.22376600  0.24646000  1.0
  O  O14  1  0.23033100  0.77623000  0.75355200  1.0
  O  O15  1  0.23032400  0.77630800  0.24642700  1.0
