# generated using pymatgen
data_Li4MnNb2WO12
_symmetry_space_group_name_H-M   'P 1'
_cell_length_a   5.16427373
_cell_length_b   5.46349838
_cell_length_c   7.52237307
_cell_angle_alpha   94.47069027
_cell_angle_beta   89.98174776
_cell_angle_gamma   89.87312711
_symmetry_Int_Tables_number   1
_chemical_formula_structural   Li4MnNb2WO12
_chemical_formula_sum   'Li4 Mn1 Nb2 W1 O12'
_cell_volume   211.59743456
_cell_formula_units_Z   1
loop_
 _symmetry_equiv_pos_site_id
 _symmetry_equiv_pos_as_xyz
  1  'x, y, z'
loop_
 _atom_site_type_symbol
 _atom_site_label
 _atom_site_symmetry_multiplicity
 _atom_site_fract_x
 _atom_site_fract_y
 _atom_site_fract_z
 _atom_site_occupancy
  Li  Li0  1  0.99787600  0.56438700  0.69010300  1.0
  Li  Li1  1  0.49862300  0.09298300  0.23085900  1.0
  Li  Li2  1  0.00630200  0.51203900  0.26147900  1.0
  Li  Li3  1  0.49622900  0.07655000  0.69103800  1.0
  Mn  Mn4  1  0.50006000  0.50026100  0.50142200  1.0
  Nb  Nb5  1  0.00447100  0.99845900  0.48953400  1.0
  Nb  Nb6  1  0.49833100  0.52547500  0.99951300  1.0
  W  W7  1  0.00307000  0.01123400  0.99216000  1.0
  O  O8  1  0.29984500  0.78799600  0.56422700  1.0
  O  O9  1  0.12405300  0.98307600  0.24223900  1.0
  O  O10  1  0.31269100  0.17071300  0.94331700  1.0
  O  O11  1  0.20565300  0.29386600  0.56326500  1.0
  O  O12  1  0.81869600  0.30008500  0.06864000  1.0
  O  O13  1  0.39044300  0.47547000  0.25443700  1.0
  O  O14  1  0.61384600  0.48822600  0.75465000  1.0
  O  O15  1  0.17182400  0.68102800  0.94295100  1.0
  O  O16  1  0.80394700  0.68045200  0.45613100  1.0
  O  O17  1  0.69101200  0.81700600  0.07040000  1.0
  O  O18  1  0.87262700  0.99187100  0.76034700  1.0
  O  O19  1  0.69040100  0.19123000  0.45208200  1.0
