# generated using pymatgen
data_Li4Mn3CoO8
_symmetry_space_group_name_H-M   'P 1'
_cell_length_a   2.87241817
_cell_length_b   3.05853607
_cell_length_c   19.65031240
_cell_angle_alpha   89.61154037
_cell_angle_beta   85.93790796
_cell_angle_gamma   62.18352011
_symmetry_Int_Tables_number   1
_chemical_formula_structural   Li4Mn3CoO8
_chemical_formula_sum   'Li4 Mn3 Co1 O8'
_cell_volume   152.23599734
_cell_formula_units_Z   1
loop_
 _symmetry_equiv_pos_site_id
 _symmetry_equiv_pos_as_xyz
  1  'x, y, z'
loop_
 _atom_site_type_symbol
 _atom_site_label
 _atom_site_symmetry_multiplicity
 _atom_site_fract_x
 _atom_site_fract_y
 _atom_site_fract_z
 _atom_site_occupancy
  Li  Li0  1  0.37599900  0.37099000  0.87715900  1.0
  Li  Li1  1  0.62385000  0.62880000  0.12284200  1.0
  Li  Li2  1  0.12491200  0.12418100  0.62586800  1.0
  Li  Li3  1  0.87494000  0.87570300  0.37412800  1.0
  Mn  Mn4  1  0.50012800  0.50066500  0.49997400  1.0
  Mn  Mn5  1  0.75221200  0.74460600  0.75098300  1.0
  Mn  Mn6  1  0.24766600  0.25529400  0.24902900  1.0
  Co  Co7  1  0.99992700  0.99990000  0.99999400  1.0
  O  O8  1  0.70048900  0.66400900  0.94320000  1.0
  O  O9  1  0.29936000  0.33577400  0.05680200  1.0
  O  O10  1  0.41605700  0.47414000  0.69266300  1.0
  O  O11  1  0.58382900  0.52568500  0.30736000  1.0
  O  O12  1  0.16539500  0.22712200  0.44204800  1.0
  O  O13  1  0.83534400  0.77333200  0.55794700  1.0
  O  O14  1  0.91211900  0.98258300  0.19143700  1.0
  O  O15  1  0.08777300  0.01721600  0.80856900  1.0
