# generated using pymatgen
data_Li4MnV3O8
_symmetry_space_group_name_H-M   'P 1'
_cell_length_a   5.93071569
_cell_length_b   5.94789701
_cell_length_c   6.01195165
_cell_angle_alpha   118.90305945
_cell_angle_beta   119.44639535
_cell_angle_gamma   90.62635771
_symmetry_Int_Tables_number   1
_chemical_formula_structural   Li4MnV3O8
_chemical_formula_sum   'Li4 Mn1 V3 O8'
_cell_volume   152.83984137
_cell_formula_units_Z   1
loop_
 _symmetry_equiv_pos_site_id
 _symmetry_equiv_pos_as_xyz
  1  'x, y, z'
loop_
 _atom_site_type_symbol
 _atom_site_label
 _atom_site_symmetry_multiplicity
 _atom_site_fract_x
 _atom_site_fract_y
 _atom_site_fract_z
 _atom_site_occupancy
  Li  Li0  1  0.50009347  0.99280047  0.48967393  1.0
  Li  Li1  1  0.00063530  0.99374560  0.49015764  1.0
  Li  Li2  1  0.50088769  0.49487018  0.99327668  1.0
  Li  Li3  1  0.99945764  0.49380269  0.99092337  1.0
  Mn  Mn4  1  0.00107657  0.99687107  0.99396564  1.0
  V  V5  1  0.50125206  0.99690786  0.99413089  1.0
  V  V6  1  0.00136359  0.49647916  0.49430802  1.0
  V  V7  1  0.50092903  0.49637861  0.49426860  1.0
  O  O8  1  0.25040106  0.24122340  0.01596956  1.0
  O  O9  1  0.76576686  0.23469000  0.01066155  1.0
  O  O10  1  0.74600964  0.72220107  0.47919717  1.0
  O  O11  1  0.26486945  0.74787044  0.52030831  1.0
  O  O12  1  0.73766949  0.24535840  0.46862666  1.0
  O  O13  1  0.25617283  0.27077629  0.50924383  1.0
  O  O14  1  0.23689923  0.75923252  0.97856019  1.0
  O  O15  1  0.75238310  0.75262626  0.97326398  1.0
