# generated using pymatgen
data_Li4Ni3WO8
_symmetry_space_group_name_H-M   'P 1'
_cell_length_a   5.97257274
_cell_length_b   5.97271652
_cell_length_c   5.97269177
_cell_angle_alpha   60.50671156
_cell_angle_beta   60.50500485
_cell_angle_gamma   60.50490469
_symmetry_Int_Tables_number   1
_chemical_formula_structural   Li4Ni3WO8
_chemical_formula_sum   'Li4 Ni3 W1 O8'
_cell_volume   152.37791604
_cell_formula_units_Z   1
loop_
 _symmetry_equiv_pos_site_id
 _symmetry_equiv_pos_as_xyz
  1  'x, y, z'
loop_
 _atom_site_type_symbol
 _atom_site_label
 _atom_site_symmetry_multiplicity
 _atom_site_fract_x
 _atom_site_fract_y
 _atom_site_fract_z
 _atom_site_occupancy
  Li  Li0  1  0.50000000  0.50000000  0.50000100  1.0
  Li  Li1  1  0.00000200  0.50000100  0.99999900  1.0
  Li  Li2  1  0.99999800  0.00000200  0.50000000  1.0
  Li  Li3  1  0.50000100  0.00000300  0.99999700  1.0
  Ni  Ni4  1  0.50000100  0.99999700  0.49999900  1.0
  Ni  Ni5  1  0.49999900  0.50000100  0.00000100  1.0
  Ni  Ni6  1  0.00000000  0.49999800  0.50000300  1.0
  W  W7  1  0.99999900  0.99999800  0.00000300  1.0
  O  O8  1  0.73973800  0.73973100  0.73972800  1.0
  O  O9  1  0.23229400  0.77044100  0.23227400  1.0
  O  O10  1  0.23229200  0.23227000  0.77044300  1.0
  O  O11  1  0.26026100  0.26027400  0.26026400  1.0
  O  O12  1  0.77044700  0.23227700  0.23228400  1.0
  O  O13  1  0.76770800  0.22956000  0.76772700  1.0
  O  O14  1  0.76770900  0.76772800  0.22955800  1.0
  O  O15  1  0.22955100  0.76771900  0.76772000  1.0
