# generated using pymatgen
data_Li4V2OF7
_symmetry_space_group_name_H-M   'P 1'
_cell_length_a   5.93453491
_cell_length_b   5.99745353
_cell_length_c   5.99745353
_cell_angle_alpha   61.73174548
_cell_angle_beta   60.57642088
_cell_angle_gamma   60.57642088
_symmetry_Int_Tables_number   1
_chemical_formula_structural   Li4V2OF7
_chemical_formula_sum   'Li4 V2 O1 F7'
_cell_volume   154.16943061
_cell_formula_units_Z   1
loop_
 _symmetry_equiv_pos_site_id
 _symmetry_equiv_pos_as_xyz
  1  'x, y, z'
loop_
 _atom_site_type_symbol
 _atom_site_label
 _atom_site_symmetry_multiplicity
 _atom_site_fract_x
 _atom_site_fract_y
 _atom_site_fract_z
 _atom_site_occupancy
  Li  Li0  1  0.00096800  0.49816000  0.49816000  1.0
  Li  Li1  1  0.50926800  0.49275900  0.49275900  1.0
  Li  Li2  1  0.10941000  0.12624700  0.12624700  1.0
  Li  Li3  1  0.87500900  0.88161800  0.88161800  1.0
  V  V4  1  0.51413000  0.00920200  0.49142700  1.0
  V  V5  1  0.51413000  0.49142700  0.00920200  1.0
  O  O6  1  0.71049000  0.25181500  0.25181500  1.0
  F  F7  1  0.73826200  0.27641200  0.74368200  1.0
  F  F8  1  0.73826200  0.74368200  0.27641200  1.0
  F  F9  1  0.27939100  0.74380100  0.74380100  1.0
  F  F10  1  0.74917500  0.74348800  0.74348800  1.0
  F  F11  1  0.25309300  0.25724800  0.25724800  1.0
  F  F12  1  0.25428600  0.72982200  0.25136800  1.0
  F  F13  1  0.25428600  0.25136800  0.72982200  1.0
