# generated using pymatgen
data_Li4V3CrO8
_symmetry_space_group_name_H-M   'P 1'
_cell_length_a   5.18463740
_cell_length_b   5.94699905
_cell_length_c   5.94836902
_cell_angle_alpha   60.01472968
_cell_angle_beta   89.98707808
_cell_angle_gamma   73.34443582
_symmetry_Int_Tables_number   1
_chemical_formula_structural   Li4V3CrO8
_chemical_formula_sum   'Li4 V3 Cr1 O8'
_cell_volume   149.91569132
_cell_formula_units_Z   1
loop_
 _symmetry_equiv_pos_site_id
 _symmetry_equiv_pos_as_xyz
  1  'x, y, z'
loop_
 _atom_site_type_symbol
 _atom_site_label
 _atom_site_symmetry_multiplicity
 _atom_site_fract_x
 _atom_site_fract_y
 _atom_site_fract_z
 _atom_site_occupancy
  Li  Li0  1  0.99885600  0.00385600  0.49764900  1.0
  Li  Li1  1  0.00115500  0.99612700  0.00235400  1.0
  Li  Li2  1  0.00019300  0.49993600  0.49487100  1.0
  Li  Li3  1  0.99979900  0.50010400  0.00510800  1.0
  V  V4  1  0.49999500  0.99997000  0.75002800  1.0
  V  V5  1  0.49998500  0.99995600  0.25001600  1.0
  V  V6  1  0.49998200  0.50003100  0.74998000  1.0
  Cr  Cr7  1  0.49995400  0.50020200  0.24986900  1.0
  O  O8  1  0.72679200  0.75773300  0.62077500  1.0
  O  O9  1  0.26946900  0.74377300  0.88077100  1.0
  O  O10  1  0.72999200  0.75430700  0.12420800  1.0
  O  O11  1  0.26899300  0.74067400  0.37872100  1.0
  O  O12  1  0.73057700  0.25616000  0.61929500  1.0
  O  O13  1  0.27318800  0.24227700  0.87922800  1.0
  O  O14  1  0.73107100  0.25926300  0.12130200  1.0
  O  O15  1  0.26999800  0.24563200  0.37582600  1.0
