# generated using pymatgen
data_Li5MnO4
_symmetry_space_group_name_H-M   'P 1'
_cell_length_a   4.53455000
_cell_length_b   6.61245300
_cell_length_c   6.75131500
_cell_angle_alpha   89.99998285
_cell_angle_beta   90.00002961
_cell_angle_gamma   90.00010253
_symmetry_Int_Tables_number   1
_chemical_formula_structural   Li5MnO4
_chemical_formula_sum   'Li10 Mn2 O8'
_cell_volume   202.43479619
_cell_formula_units_Z   2
loop_
 _symmetry_equiv_pos_site_id
 _symmetry_equiv_pos_as_xyz
  1  'x, y, z'
loop_
 _atom_site_type_symbol
 _atom_site_label
 _atom_site_symmetry_multiplicity
 _atom_site_fract_x
 _atom_site_fract_y
 _atom_site_fract_z
 _atom_site_occupancy
  Li  Li0  1  0.25161100  0.99101400  0.94807100  1.0
  Li  Li1  1  0.25161100  0.50898600  0.94807100  1.0
  Li  Li2  1  0.80426900  0.25000000  0.75000000  1.0
  Li  Li3  1  0.25161100  0.99101400  0.55192900  1.0
  Li  Li4  1  0.25161100  0.50898600  0.55192900  1.0
  Li  Li5  1  0.74838800  0.00898600  0.44807100  1.0
  Li  Li6  1  0.74838800  0.49101400  0.44807000  1.0
  Li  Li7  1  0.19573200  0.75000000  0.25000000  1.0
  Li  Li8  1  0.74838800  0.00898600  0.05192900  1.0
  Li  Li9  1  0.74838800  0.49101400  0.05192900  1.0
  Mn  Mn10  1  0.76711800  0.75000000  0.75000000  1.0
  Mn  Mn11  1  0.23288600  0.24999800  0.25000200  1.0
  O  O12  1  0.97018300  0.75000000  0.99857900  1.0
  O  O13  1  0.57460200  0.00397000  0.75000000  1.0
  O  O14  1  0.57460200  0.49603100  0.75000000  1.0
  O  O15  1  0.97018200  0.75000000  0.50142000  1.0
  O  O16  1  0.02981600  0.25000000  0.49858000  1.0
  O  O17  1  0.42540000  0.99602800  0.25000000  1.0
  O  O18  1  0.42539900  0.50397200  0.25000000  1.0
  O  O19  1  0.02981500  0.25000000  0.00141900  1.0
