# generated using pymatgen
data_Li5Mn(CoO4)2
_symmetry_space_group_name_H-M   'P 1'
_cell_length_a   5.05149004
_cell_length_b   5.80543600
_cell_length_c   5.89394159
_cell_angle_alpha   60.49550654
_cell_angle_beta   72.43526792
_cell_angle_gamma   90.00000000
_symmetry_Int_Tables_number   1
_chemical_formula_structural   Li5Mn(CoO4)2
_chemical_formula_sum   'Li5 Mn1 Co2 O8'
_cell_volume   141.09796369
_cell_formula_units_Z   1
loop_
 _symmetry_equiv_pos_site_id
 _symmetry_equiv_pos_as_xyz
  1  'x, y, z'
loop_
 _atom_site_type_symbol
 _atom_site_label
 _atom_site_symmetry_multiplicity
 _atom_site_fract_x
 _atom_site_fract_y
 _atom_site_fract_z
 _atom_site_occupancy
  Li  Li0  1  0.49965200  0.25216900  0.49794600  1.0
  Li  Li1  1  0.99888800  0.49948400  0.49993000  1.0
  Li  Li2  1  0.50034800  0.75011500  0.50205400  1.0
  Li  Li3  1  0.00111200  0.99941400  0.50007000  1.0
  Li  Li4  1  0.50000000  0.24977700  1.00000000  1.0
  Mn  Mn5  1  0.00000000  0.00114300  1.00000000  1.0
  Co  Co6  1  0.00000000  0.49246500  1.00000000  1.0
  Co  Co7  1  0.50000000  0.75046600  1.00000000  1.0
  O  O8  1  0.25045000  0.87481900  0.21426600  1.0
  O  O9  1  0.77791200  0.12010800  0.23534800  1.0
  O  O10  1  0.25681300  0.41611500  0.21323200  1.0
  O  O11  1  0.75996800  0.64003200  0.23997300  1.0
  O  O12  1  0.74318700  0.62934700  0.78676800  1.0
  O  O13  1  0.24003200  0.88000500  0.76002700  1.0
  O  O14  1  0.74955000  0.08908500  0.78573400  1.0
  O  O15  1  0.22208800  0.35545600  0.76465200  1.0
