# generated using pymatgen
data_Li5MnO4
_symmetry_space_group_name_H-M   'P 1'
_cell_length_a   4.60691800
_cell_length_b   6.62576072
_cell_length_c   6.62575864
_cell_angle_alpha   93.10467674
_cell_angle_beta   90.00111648
_cell_angle_gamma   90.00035292
_symmetry_Int_Tables_number   1
_chemical_formula_structural   Li5MnO4
_chemical_formula_sum   'Li10 Mn2 O8'
_cell_volume   201.95003780
_cell_formula_units_Z   2
loop_
 _symmetry_equiv_pos_site_id
 _symmetry_equiv_pos_as_xyz
  1  'x, y, z'
loop_
 _atom_site_type_symbol
 _atom_site_label
 _atom_site_symmetry_multiplicity
 _atom_site_fract_x
 _atom_site_fract_y
 _atom_site_fract_z
 _atom_site_occupancy
  Li  Li0  1  0.77640600  0.95536600  0.96179600  1.0
  Li  Li1  1  0.67623800  0.27749800  0.78179300  1.0
  Li  Li2  1  0.17623000  0.21819500  0.72249900  1.0
  Li  Li3  1  0.72360300  0.53820900  0.54463900  1.0
  Li  Li4  1  0.74998400  0.98095800  0.51904800  1.0
  Li  Li5  1  0.22360000  0.45535700  0.46179700  1.0
  Li  Li6  1  0.32377400  0.77749700  0.28179000  1.0
  Li  Li7  1  0.82376900  0.71821500  0.22250500  1.0
  Li  Li8  1  0.27640600  0.03820500  0.04463200  1.0
  Li  Li9  1  0.24997700  0.48094400  0.01904900  1.0
  Mn  Mn10  1  0.25001100  0.75369100  0.74630600  1.0
  Mn  Mn11  1  0.74999000  0.25372800  0.24628400  1.0
  O  O12  1  0.96275600  0.23689800  0.99371100  1.0
  O  O13  1  0.46275100  0.00627400  0.76310900  1.0
  O  O14  1  0.39228600  0.48229100  0.73343200  1.0
  O  O15  1  0.89227600  0.26658100  0.51768900  1.0
  O  O16  1  0.03726500  0.73688500  0.49371700  1.0
  O  O17  1  0.60771900  0.98232000  0.23341900  1.0
  O  O18  1  0.53724600  0.50629800  0.26311000  1.0
  O  O19  1  0.10771100  0.76657200  0.01769700  1.0
