# generated using pymatgen
data_Li5SiP3
_symmetry_space_group_name_H-M   'P 1'
_cell_length_a   5.91951400
_cell_length_b   7.05521003
_cell_length_c   8.61638904
_cell_angle_alpha   107.59968483
_cell_angle_beta   90.00000000
_cell_angle_gamma   114.80388680
_symmetry_Int_Tables_number   1
_chemical_formula_structural   Li5SiP3
_chemical_formula_sum   'Li10 Si2 P6'
_cell_volume   307.99948182
_cell_formula_units_Z   2
loop_
 _symmetry_equiv_pos_site_id
 _symmetry_equiv_pos_as_xyz
  1  'x, y, z'
loop_
 _atom_site_type_symbol
 _atom_site_label
 _atom_site_symmetry_multiplicity
 _atom_site_fract_x
 _atom_site_fract_y
 _atom_site_fract_z
 _atom_site_occupancy
  Li  Li0  1  0.60262500  0.68810800  0.42104600  1.0
  Li  Li1  1  0.21463000  0.99716200  0.27224700  1.0
  Li  Li2  1  0.91451300  0.34863500  0.07832100  1.0
  Li  Li3  1  0.55894100  0.64686900  0.90839400  1.0
  Li  Li4  1  0.08548300  0.68810800  0.92104600  1.0
  Li  Li5  1  0.91544600  0.32054000  0.58202600  1.0
  Li  Li6  1  0.78253200  0.99716200  0.77224700  1.0
  Li  Li7  1  0.43412200  0.34863500  0.57832100  1.0
  Li  Li8  1  0.08792800  0.64686900  0.40839400  1.0
  Li  Li9  1  0.40509400  0.32054000  0.08202600  1.0
  Si  Si10  1  0.32245200  0.99931500  0.69563800  1.0
  Si  Si11  1  0.67686300  0.99931500  0.19563800  1.0
  P  P12  1  0.96432700  0.00030400  0.03854000  1.0
  P  P13  1  0.32812700  0.68409700  0.67217300  1.0
  P  P14  1  0.03597700  0.00030400  0.53854000  1.0
  P  P15  1  0.66782700  0.31312600  0.32562500  1.0
  P  P16  1  0.35597000  0.68409700  0.17217300  1.0
  P  P17  1  0.64529900  0.31312600  0.82562500  1.0
