# generated using pymatgen
data_Li6Br3N
_symmetry_space_group_name_H-M   'P 1'
_cell_length_a   6.33003220
_cell_length_b   6.33003220
_cell_length_c   6.38527517
_cell_angle_alpha   119.67180283
_cell_angle_beta   119.47099494
_cell_angle_gamma   90.25050874
_symmetry_Int_Tables_number   1
_chemical_formula_structural   Li6Br3N
_chemical_formula_sum   'Li6 Br3 N1'
_cell_volume   182.84996993
_cell_formula_units_Z   1
loop_
 _symmetry_equiv_pos_site_id
 _symmetry_equiv_pos_as_xyz
  1  'x, y, z'
loop_
 _atom_site_type_symbol
 _atom_site_label
 _atom_site_symmetry_multiplicity
 _atom_site_fract_x
 _atom_site_fract_y
 _atom_site_fract_z
 _atom_site_occupancy
  Li  Li0  1  0.29586000  0.13465800  0.43051800  1.0
  Li  Li1  1  0.81607900  0.81870900  0.06569700  1.0
  Li  Li2  1  0.13858700  0.73413800  0.87272500  1.0
  Li  Li3  1  0.88781700  0.29453100  0.18234800  1.0
  Li  Li4  1  0.74059600  0.89335500  0.63395100  1.0
  Li  Li5  1  0.24698800  0.24961800  0.06569700  1.0
  Br  Br6  1  0.75036900  0.25034600  0.50102300  1.0
  Br  Br7  1  0.50143900  0.50202100  0.00346000  1.0
  Br  Br8  1  0.25067700  0.75065400  0.50102300  1.0
  N  N9  1  0.01378800  0.01417100  0.02795900  1.0
