# generated using pymatgen
data_Li7IN2
_symmetry_space_group_name_H-M   'P 1'
_cell_length_a   7.34559003
_cell_length_b   7.37620000
_cell_length_c   7.38256743
_cell_angle_alpha   60.02852701
_cell_angle_beta   60.20990251
_cell_angle_gamma   90.00000000
_symmetry_Int_Tables_number   1
_chemical_formula_structural   Li7IN2
_chemical_formula_sum   'Li14 I2 N4'
_cell_volume   283.86271906
_cell_formula_units_Z   2
loop_
 _symmetry_equiv_pos_site_id
 _symmetry_equiv_pos_as_xyz
  1  'x, y, z'
loop_
 _atom_site_type_symbol
 _atom_site_label
 _atom_site_symmetry_multiplicity
 _atom_site_fract_x
 _atom_site_fract_y
 _atom_site_fract_z
 _atom_site_occupancy
  Li  Li0  1  0.99601900  0.01042900  0.97914200  1.0
  Li  Li1  1  0.91844400  0.06214500  0.51120200  1.0
  Li  Li2  1  0.91844400  0.42665300  0.51120200  1.0
  Li  Li3  1  0.56287900  0.06525800  0.86948400  1.0
  Li  Li4  1  0.92536200  0.42203300  0.15593400  1.0
  Li  Li5  1  0.57540000  0.42063100  0.50313100  1.0
  Li  Li6  1  0.57540000  0.07623800  0.50313100  1.0
  Li  Li7  1  0.78851700  0.21756000  0.99641500  1.0
  Li  Li8  1  0.78851700  0.78602500  0.99641500  1.0
  Li  Li9  1  0.21047500  0.21435200  0.57129600  1.0
  Li  Li10  1  0.70957300  0.79709900  0.40580200  1.0
  Li  Li11  1  0.20989300  0.78965200  0.94011200  1.0
  Li  Li12  1  0.20989300  0.27023600  0.94011200  1.0
  Li  Li13  1  0.08319500  0.87891600  0.24216800  1.0
  I  I14  1  0.50143400  0.49316500  0.01367000  1.0
  I  I15  1  0.25782700  0.72815800  0.54368400  1.0
  N  N16  1  0.87465500  0.11864500  0.76271000  1.0
  N  N17  1  0.88518800  0.64905600  0.24133600  1.0
  N  N18  1  0.88518800  0.10960800  0.24133600  1.0
  N  N19  1  0.34860600  0.11199300  0.77601400  1.0
