# generated using pymatgen
data_LiAg3(IrO3)2
_symmetry_space_group_name_H-M   'P 1'
_cell_length_a   5.33955119
_cell_length_b   5.33955120
_cell_length_c   6.63177971
_cell_angle_alpha   97.74296842
_cell_angle_beta   97.74297931
_cell_angle_gamma   119.87480184
_symmetry_Int_Tables_number   1
_chemical_formula_structural   LiAg3(IrO3)2
_chemical_formula_sum   'Li1 Ag3 Ir2 O6'
_cell_volume   157.91105628
_cell_formula_units_Z   1
loop_
 _symmetry_equiv_pos_site_id
 _symmetry_equiv_pos_as_xyz
  1  'x, y, z'
loop_
 _atom_site_type_symbol
 _atom_site_label
 _atom_site_symmetry_multiplicity
 _atom_site_fract_x
 _atom_site_fract_y
 _atom_site_fract_z
 _atom_site_occupancy
  Li  Li0  1  0.83333300  0.16666633  0.50000000  1.0
  Ag  Ag1  1  0.66378000  0.33622200  0.00000000  1.0
  Ag  Ag2  1  0.33333333  0.66666667  1.00000000  1.0
  Ag  Ag3  1  0.00288700  0.99711200  0.00000000  1.0
  Ir  Ir4  1  0.50016000  0.49984100  0.50000000  1.0
  Ir  Ir5  1  0.16650700  0.83349300  0.50000000  1.0
  O  O6  1  0.24214300  0.57547633  0.66494300  1.0
  O  O7  1  0.88757000  0.86721000  0.66401700  1.0
  O  O8  1  0.53387700  0.22090400  0.66401700  1.0
  O  O9  1  0.77909700  0.46612400  0.33598300  1.0
  O  O10  1  0.42452300  0.75785633  0.33505700  1.0
  O  O11  1  0.13279000  0.11243000  0.33598300  1.0
