# generated using pymatgen
data_LiAgF4
_symmetry_space_group_name_H-M   'P 1'
_cell_length_a   5.42137000
_cell_length_b   5.42137000
_cell_length_c   6.39478909
_cell_angle_alpha   115.08040298
_cell_angle_beta   115.08040298
_cell_angle_gamma   90.00000000
_symmetry_Int_Tables_number   1
_chemical_formula_structural   LiAgF4
_chemical_formula_sum   'Li2 Ag2 F8'
_cell_volume   150.43527630
_cell_formula_units_Z   2
loop_
 _symmetry_equiv_pos_site_id
 _symmetry_equiv_pos_as_xyz
  1  'x, y, z'
loop_
 _atom_site_type_symbol
 _atom_site_label
 _atom_site_symmetry_multiplicity
 _atom_site_fract_x
 _atom_site_fract_y
 _atom_site_fract_z
 _atom_site_occupancy
  Li  Li0  1  0.75000000  0.75000000  0.50000000  1.0
  Li  Li1  1  0.25000000  0.25000000  0.50000000  1.0
  Ag  Ag2  1  0.00000000  0.50000000  0.00000000  1.0
  Ag  Ag3  1  0.50000000  0.00000000  0.00000000  1.0
  F  F4  1  0.44892400  0.94892400  0.26788700  1.0
  F  F5  1  0.94892400  0.81896300  0.26788700  1.0
  F  F6  1  0.18103700  0.68103700  0.73211300  1.0
  F  F7  1  0.31896300  0.44892400  0.26788700  1.0
  F  F8  1  0.68103700  0.55107600  0.73211300  1.0
  F  F9  1  0.81896300  0.31896300  0.26788700  1.0
  F  F10  1  0.05107600  0.18103700  0.73211300  1.0
  F  F11  1  0.55107600  0.05107600  0.73211300  1.0
