# generated using pymatgen
data_LiBH4
_symmetry_space_group_name_H-M   'P 1'
_cell_length_a   4.07291100
_cell_length_b   4.08036301
_cell_length_c   5.06669019
_cell_angle_alpha   89.78375815
_cell_angle_beta   90.11994749
_cell_angle_gamma   89.99629296
_symmetry_Int_Tables_number   1
_chemical_formula_structural   LiBH4
_chemical_formula_sum   'Li2 B2 H8'
_cell_volume   84.20231380
_cell_formula_units_Z   2
loop_
 _symmetry_equiv_pos_site_id
 _symmetry_equiv_pos_as_xyz
  1  'x, y, z'
loop_
 _atom_site_type_symbol
 _atom_site_label
 _atom_site_symmetry_multiplicity
 _atom_site_fract_x
 _atom_site_fract_y
 _atom_site_fract_z
 _atom_site_occupancy
  Li  Li0  1  0.00833200  0.01051500  0.99916800  1.0
  Li  Li1  1  0.50476100  0.49237800  0.49834500  1.0
  B  B2  1  0.49886200  0.49569300  0.99726800  1.0
  B  B3  1  0.00412900  0.00301600  0.49988800  1.0
  H  H4  1  0.99918500  0.75884600  0.36049400  1.0
  H  H5  1  0.76098900  0.00042800  0.63912300  1.0
  H  H6  1  0.00053400  0.25270600  0.36706100  1.0
  H  H7  1  0.50030700  0.24543600  0.12744000  1.0
  H  H8  1  0.74557300  0.50306400  0.86092900  1.0
  H  H9  1  0.25106200  0.50141400  0.86099000  1.0
  H  H10  1  0.49907300  0.73966900  0.13709900  1.0
  H  H11  1  0.25629400  0.99812900  0.63079600  1.0
