# generated using pymatgen
data_LiCrCoO4
_symmetry_space_group_name_H-M   'P 1'
_cell_length_a   5.84242806
_cell_length_b   5.84289855
_cell_length_c   5.88784047
_cell_angle_alpha   119.13992259
_cell_angle_beta   92.08546615
_cell_angle_gamma   118.19954149
_symmetry_Int_Tables_number   1
_chemical_formula_structural   LiCrCoO4
_chemical_formula_sum   'Li2 Cr2 Co2 O8'
_cell_volume   145.14826930
_cell_formula_units_Z   2
loop_
 _symmetry_equiv_pos_site_id
 _symmetry_equiv_pos_as_xyz
  1  'x, y, z'
loop_
 _atom_site_type_symbol
 _atom_site_label
 _atom_site_symmetry_multiplicity
 _atom_site_fract_x
 _atom_site_fract_y
 _atom_site_fract_z
 _atom_site_occupancy
  Li  Li0  1  0.86925900  0.24631300  0.11564500  1.0
  Li  Li1  1  0.13064100  0.75358900  0.88429100  1.0
  Cr  Cr2  1  0.49992000  0.50004100  0.50005500  1.0
  Cr  Cr3  1  0.00012400  0.00018800  0.50005500  1.0
  Co  Co4  1  0.49999600  0.99995400  0.49995500  1.0
  Co  Co5  1  0.50007100  0.50003300  0.00010500  1.0
  O  O6  1  0.25648400  0.47291700  0.72940500  1.0
  O  O7  1  0.27393400  0.02177300  0.29567300  1.0
  O  O8  1  0.72611100  0.97819800  0.70429300  1.0
  O  O9  1  0.74354600  0.52708200  0.27060400  1.0
  O  O10  1  0.27437300  0.04410200  0.75708100  1.0
  O  O11  1  0.71297500  0.48274100  0.75711800  1.0
  O  O12  1  0.28694000  0.51717200  0.24284000  1.0
  O  O13  1  0.72562600  0.95589900  0.24288100  1.0
