# generated using pymatgen
data_LiCr(CoO3)2
_symmetry_space_group_name_H-M   'P 1'
_cell_length_a   2.90132447
_cell_length_b   5.98664647
_cell_length_c   6.46656017
_cell_angle_alpha   75.34562191
_cell_angle_beta   77.37131423
_cell_angle_gamma   89.01528160
_symmetry_Int_Tables_number   1
_chemical_formula_structural   LiCr(CoO3)2
_chemical_formula_sum   'Li1 Cr1 Co2 O6'
_cell_volume   105.94981518
_cell_formula_units_Z   1
loop_
 _symmetry_equiv_pos_site_id
 _symmetry_equiv_pos_as_xyz
  1  'x, y, z'
loop_
 _atom_site_type_symbol
 _atom_site_label
 _atom_site_symmetry_multiplicity
 _atom_site_fract_x
 _atom_site_fract_y
 _atom_site_fract_z
 _atom_site_occupancy
  Co  Co4  1  0.34029050  0.65884450  0.32163350  1.0
  Co  Co5  1  0.00133500  0.00760800  0.01066700  1.0
  Cr  Cr2  1  0.65983900  0.33265900  0.66668100  1.0
  Li  Li0  1  0.66964750  0.83407800  0.66556800  1.0
  O  O8  1  0.50728800  0.21212000  0.99404100  1.0
  O  O10  1  0.79362150  0.44706500  0.34157700  1.0
  O  O12  1  0.17042850  0.57250650  0.63507750  1.0
  O  O14  1  0.15291250  0.09320050  0.70057850  1.0
  O  O16  1  0.86586150  0.87943550  0.31673950  1.0
  O  O18  1  0.50544150  0.79581250  0.01410550  1.0
