# generated using pymatgen
data_LiCuF4
_symmetry_space_group_name_H-M   'P 1'
_cell_length_a   4.99185900
_cell_length_b   5.62736300
_cell_length_c   5.80347730
_cell_angle_alpha   118.33033334
_cell_angle_beta   90.00000000
_cell_angle_gamma   90.00000000
_symmetry_Int_Tables_number   1
_chemical_formula_structural   LiCuF4
_chemical_formula_sum   'Li2 Cu2 F8'
_cell_volume   143.49931936
_cell_formula_units_Z   2
loop_
 _symmetry_equiv_pos_site_id
 _symmetry_equiv_pos_as_xyz
  1  'x, y, z'
loop_
 _atom_site_type_symbol
 _atom_site_label
 _atom_site_symmetry_multiplicity
 _atom_site_fract_x
 _atom_site_fract_y
 _atom_site_fract_z
 _atom_site_occupancy
  Li  Li0  1  1.00000000  0.00000000  0.50000000  1.0
  Li  Li1  1  0.50000000  0.50000000  0.00000000  1.0
  Cu  Cu2  1  0.50000000  0.50000000  0.50000000  1.0
  Cu  Cu3  1  0.00000000  0.00000000  0.00000000  1.0
  F  F4  1  0.68814600  0.65625500  0.80265100  1.0
  F  F5  1  0.81185400  0.15625500  0.30265100  1.0
  F  F6  1  0.33023600  0.30723600  0.63256900  1.0
  F  F7  1  0.83023600  0.19276400  0.86743100  1.0
  F  F8  1  0.16976400  0.80723600  0.13256900  1.0
  F  F9  1  0.66976400  0.69276400  0.36743100  1.0
  F  F10  1  0.18814600  0.84374500  0.69734900  1.0
  F  F11  1  0.31185400  0.34374500  0.19734900  1.0
