# generated using pymatgen
data_LiFe2O3
_symmetry_space_group_name_H-M   'P 1'
_cell_length_a   3.04429369
_cell_length_b   3.04567934
_cell_length_c   7.49894419
_cell_angle_alpha   87.81104173
_cell_angle_beta   88.98006043
_cell_angle_gamma   60.35513179
_symmetry_Int_Tables_number   1
_chemical_formula_structural   LiFe2O3
_chemical_formula_sum   'Li1 Fe2 O3'
_cell_volume   60.38473399
_cell_formula_units_Z   1
loop_
 _symmetry_equiv_pos_site_id
 _symmetry_equiv_pos_as_xyz
  1  'x, y, z'
loop_
 _atom_site_type_symbol
 _atom_site_label
 _atom_site_symmetry_multiplicity
 _atom_site_fract_x
 _atom_site_fract_y
 _atom_site_fract_z
 _atom_site_occupancy
  Fe  Fe2  1  0.67550350  0.66568900  0.17528800  1.0
  Fe  Fe3  1  0.32521800  0.32871750  0.81048000  1.0
  Li  Li0  1  0.99226050  0.01178900  0.51971700  1.0
  O  O6  1  0.00896800  0.02004250  0.01670900  1.0
  O  O8  1  0.65332700  0.65436200  0.66870800  1.0
  O  O10  1  0.34472350  0.31942000  0.30909900  1.0
