# generated using pymatgen
data_LiFe2F5
_symmetry_space_group_name_H-M   'P 1'
_cell_length_a   5.33300436
_cell_length_b   5.96286149
_cell_length_c   7.57771363
_cell_angle_alpha   109.99405534
_cell_angle_beta   90.16332416
_cell_angle_gamma   116.05012403
_symmetry_Int_Tables_number   1
_chemical_formula_structural   LiFe2F5
_chemical_formula_sum   'Li2 Fe4 F10'
_cell_volume   200.07353983
_cell_formula_units_Z   2
loop_
 _symmetry_equiv_pos_site_id
 _symmetry_equiv_pos_as_xyz
  1  'x, y, z'
loop_
 _atom_site_type_symbol
 _atom_site_label
 _atom_site_symmetry_multiplicity
 _atom_site_fract_x
 _atom_site_fract_y
 _atom_site_fract_z
 _atom_site_occupancy
  Li  Li0  1  0.43489900  0.50473200  0.95827300  1.0
  Li  Li1  1  0.58490200  0.51871900  0.46490200  1.0
  Fe  Fe2  1  0.81043300  0.13187000  0.12552900  1.0
  Fe  Fe3  1  0.81269500  0.13339100  0.62684000  1.0
  Fe  Fe4  1  0.17829300  0.86924000  0.37940800  1.0
  Fe  Fe5  1  0.18470700  0.86751000  0.88018100  1.0
  F  F6  1  0.16750800  0.49312200  0.76804200  1.0
  F  F7  1  0.52669500  0.24314800  0.54069800  1.0
  F  F8  1  0.98093700  0.10656300  0.36828800  1.0
  F  F9  1  0.20540300  0.23957600  0.03898500  1.0
  F  F10  1  0.61642800  0.11370800  0.86930500  1.0
  F  F11  1  0.37606100  0.87283900  0.13495200  1.0
  F  F12  1  0.79595300  0.76080300  0.97185000  1.0
  F  F13  1  0.98801600  0.86939500  0.63389400  1.0
  F  F14  1  0.45751700  0.76248400  0.47434900  1.0
  F  F15  1  0.82047900  0.49553700  0.26649100  1.0
