# generated using pymatgen
data_LiFe2O3
_symmetry_space_group_name_H-M   'P 1'
_cell_length_a   3.04799551
_cell_length_b   3.05427371
_cell_length_c   7.40969189
_cell_angle_alpha   91.33123364
_cell_angle_beta   90.00886637
_cell_angle_gamma   119.92775226
_symmetry_Int_Tables_number   1
_chemical_formula_structural   LiFe2O3
_chemical_formula_sum   'Li1 Fe2 O3'
_cell_volume   59.76014275
_cell_formula_units_Z   1
loop_
 _symmetry_equiv_pos_site_id
 _symmetry_equiv_pos_as_xyz
  1  'x, y, z'
loop_
 _atom_site_type_symbol
 _atom_site_label
 _atom_site_symmetry_multiplicity
 _atom_site_fract_x
 _atom_site_fract_y
 _atom_site_fract_z
 _atom_site_occupancy
  Fe  Fe2  1  0.33310300  0.66684700  0.18162200  1.0
  Fe  Fe3  1  0.66676950  0.33339000  0.81843250  1.0
  Li  Li0  1  0.99974000  0.99925500  0.50024650  1.0
  O  O6  1  0.99968850  0.99965600  0.99992550  1.0
  O  O8  1  0.34103200  0.68134500  0.67979350  1.0
  O  O10  1  0.65966600  0.31948700  0.31998050  1.0
