# generated using pymatgen
data_LiFeF3
_symmetry_space_group_name_H-M   'P 1'
_cell_length_a   5.71572528
_cell_length_b   7.09373183
_cell_length_c   7.09373183
_cell_angle_alpha   79.42169848
_cell_angle_beta   73.83625029
_cell_angle_gamma   73.83625029
_symmetry_Int_Tables_number   1
_chemical_formula_structural   LiFeF3
_chemical_formula_sum   'Li4 Fe4 F12'
_cell_volume   263.57116587
_cell_formula_units_Z   4
loop_
 _symmetry_equiv_pos_site_id
 _symmetry_equiv_pos_as_xyz
  1  'x, y, z'
loop_
 _atom_site_type_symbol
 _atom_site_label
 _atom_site_symmetry_multiplicity
 _atom_site_fract_x
 _atom_site_fract_y
 _atom_site_fract_z
 _atom_site_occupancy
  Li  Li0  1  0.70591000  0.38035200  0.20587200  1.0
  Li  Li1  1  0.20591000  0.20587200  0.38035200  1.0
  Li  Li2  1  0.79409000  0.79412800  0.61964800  1.0
  Li  Li3  1  0.29409000  0.61964800  0.79412800  1.0
  Fe  Fe4  1  0.75000000  0.91376000  0.08624000  1.0
  Fe  Fe5  1  0.75000000  0.29406200  0.70593800  1.0
  Fe  Fe6  1  0.25000000  0.70593800  0.29406200  1.0
  Fe  Fe7  1  0.25000000  0.08624000  0.91376000  1.0
  F  F8  1  0.83488900  0.19495500  0.00835300  1.0
  F  F9  1  0.33488900  0.00835300  0.19495500  1.0
  F  F10  1  0.63789200  0.66078900  0.13376800  1.0
  F  F11  1  0.86125400  0.30616100  0.41104600  1.0
  F  F12  1  0.13789200  0.13376800  0.66078900  1.0
  F  F13  1  0.36125400  0.41104600  0.30616100  1.0
  F  F14  1  0.63874600  0.58895400  0.69383900  1.0
  F  F15  1  0.86210800  0.86623200  0.33921100  1.0
  F  F16  1  0.13874600  0.69383900  0.58895400  1.0
  F  F17  1  0.36210800  0.33921100  0.86623200  1.0
  F  F18  1  0.66511100  0.99164700  0.80504500  1.0
  F  F19  1  0.16511100  0.80504500  0.99164700  1.0
