# generated using pymatgen
data_LiFe2O2F3
_symmetry_space_group_name_H-M   'P 1'
_cell_length_a   3.87234000
_cell_length_b   5.35896664
_cell_length_c   10.09602733
_cell_angle_alpha   90.50461077
_cell_angle_beta   90.00000000
_cell_angle_gamma   111.17977236
_symmetry_Int_Tables_number   1
_chemical_formula_structural   LiFe2O2F3
_chemical_formula_sum   'Li2 Fe4 O4 F6'
_cell_volume   195.34931459
_cell_formula_units_Z   2
loop_
 _symmetry_equiv_pos_site_id
 _symmetry_equiv_pos_as_xyz
  1  'x, y, z'
loop_
 _atom_site_type_symbol
 _atom_site_label
 _atom_site_symmetry_multiplicity
 _atom_site_fract_x
 _atom_site_fract_y
 _atom_site_fract_z
 _atom_site_occupancy
  Li  Li0  1  0.30884300  0.61768600  0.73720700  1.0
  Li  Li1  1  0.63552200  0.27104400  0.57366700  1.0
  Fe  Fe2  1  0.35338800  0.70677600  0.44025500  1.0
  Fe  Fe3  1  0.37041200  0.74082400  0.08010800  1.0
  Fe  Fe4  1  0.70003800  0.40007600  0.25370200  1.0
  Fe  Fe5  1  0.64367600  0.28735200  0.94519800  1.0
  O  O6  1  0.26057800  0.52115600  0.24457900  1.0
  O  O7  1  0.55584400  0.11168800  0.11579600  1.0
  O  O8  1  0.81194900  0.62389800  0.06209700  1.0
  O  O9  1  0.82177500  0.64355000  0.41127100  1.0
  F  F10  1  0.44921900  0.89843800  0.88770800  1.0
  F  F11  1  0.19399000  0.38798000  0.56142400  1.0
  F  F12  1  0.44785500  0.89571000  0.61114300  1.0
  F  F13  1  0.17507300  0.35014600  0.92928100  1.0
  F  F14  1  0.72541700  0.45083400  0.76742400  1.0
  F  F15  1  0.54641500  0.09283000  0.37914200  1.0
