# generated using pymatgen
data_LiLa4CuO8
_symmetry_space_group_name_H-M   'P 1'
_cell_length_a   5.30500300
_cell_length_b   5.31234400
_cell_length_c   7.11242369
_cell_angle_alpha   68.07112974
_cell_angle_beta   90.00000000
_cell_angle_gamma   90.00000000
_symmetry_Int_Tables_number   1
_chemical_formula_structural   LiLa4CuO8
_chemical_formula_sum   'Li1 La4 Cu1 O8'
_cell_volume   185.93996591
_cell_formula_units_Z   1
loop_
 _symmetry_equiv_pos_site_id
 _symmetry_equiv_pos_as_xyz
  1  'x, y, z'
loop_
 _atom_site_type_symbol
 _atom_site_label
 _atom_site_symmetry_multiplicity
 _atom_site_fract_x
 _atom_site_fract_y
 _atom_site_fract_z
 _atom_site_occupancy
  Li  Li0  1  0.50000000  0.50000000  1.00000000  1.0
  La  La1  1  0.50000000  0.86058200  0.27883600  1.0
  La  La2  1  0.50000000  0.13941800  0.72116400  1.0
  La  La3  1  0.00000000  0.36205200  0.27589600  1.0
  La  La4  1  0.00000000  0.63794800  0.72410400  1.0
  Cu  Cu5  1  0.00000000  0.00000000  0.00000000  1.0
  O  O6  1  0.75509100  0.75702600  1.00000000  1.0
  O  O7  1  1.00000000  0.18618500  0.62763000  1.0
  O  O8  1  0.00000000  0.81381500  0.37237000  1.0
  O  O9  1  0.50000000  0.32055600  0.35888800  1.0
  O  O10  1  0.50000000  0.67944400  0.64111200  1.0
  O  O11  1  0.24490900  0.24297400  1.00000000  1.0
  O  O12  1  0.75509100  0.24297400  1.00000000  1.0
  O  O13  1  0.24490900  0.75702600  1.00000000  1.0
