# generated using pymatgen
data_LiMg
_symmetry_space_group_name_H-M   'P 1'
_cell_length_a   3.11637000
_cell_length_b   5.06505700
_cell_length_c   8.15903739
_cell_angle_alpha   90.00000000
_cell_angle_beta   101.00978136
_cell_angle_gamma   90.00000000
_symmetry_Int_Tables_number   1
_chemical_formula_structural   LiMg
_chemical_formula_sum   'Li3 Mg3'
_cell_volume   126.41669547
_cell_formula_units_Z   3
loop_
 _symmetry_equiv_pos_site_id
 _symmetry_equiv_pos_as_xyz
  1  'x, y, z'
loop_
 _atom_site_type_symbol
 _atom_site_label
 _atom_site_symmetry_multiplicity
 _atom_site_fract_x
 _atom_site_fract_y
 _atom_site_fract_z
 _atom_site_occupancy
  Li  Li0  1  0.00014500  1.00000000  0.00029000  1.0
  Li  Li1  1  0.66602400  1.00000000  0.33204800  1.0
  Li  Li2  1  0.44479000  0.50000000  0.88958000  1.0
  Mg  Mg3  1  0.33372000  0.00000000  0.66744000  1.0
  Mg  Mg4  1  0.10988600  0.50000000  0.21977200  1.0
  Mg  Mg5  1  0.77876800  0.50000000  0.55753600  1.0
