# generated using pymatgen
data_LiMn2TeO6
_symmetry_space_group_name_H-M   'P 1'
_cell_length_a   5.13968300
_cell_length_b   5.18357631
_cell_length_c   8.71334434
_cell_angle_alpha   89.99894898
_cell_angle_beta   87.80556181
_cell_angle_gamma   88.67056303
_symmetry_Int_Tables_number   1
_chemical_formula_structural   LiMn2TeO6
_chemical_formula_sum   'Li2 Mn4 Te2 O12'
_cell_volume   231.90761644
_cell_formula_units_Z   2
loop_
 _symmetry_equiv_pos_site_id
 _symmetry_equiv_pos_as_xyz
  1  'x, y, z'
loop_
 _atom_site_type_symbol
 _atom_site_label
 _atom_site_symmetry_multiplicity
 _atom_site_fract_x
 _atom_site_fract_y
 _atom_site_fract_z
 _atom_site_occupancy
  Li  Li0  1  0.50975000  0.49866900  0.09423500  1.0
  Li  Li1  1  0.56734200  0.10664100  0.81077300  1.0
  Mn  Mn2  1  0.51027800  0.00803000  0.31276600  1.0
  Mn  Mn3  1  0.01676600  0.98710500  0.60580100  1.0
  Mn  Mn4  1  0.01072500  0.53053000  0.23817000  1.0
  Mn  Mn5  1  0.01925100  0.49648000  0.81923600  1.0
  Te  Te6  1  0.51517100  0.49665600  0.50958100  1.0
  Te  Te7  1  0.01225400  0.00519000  0.00648400  1.0
  O  O8  1  0.20591600  0.17019000  0.82952900  1.0
  O  O9  1  0.26999700  0.64698000  0.66202800  1.0
  O  O10  1  0.69841500  0.32596200  0.32578400  1.0
  O  O11  1  0.29933200  0.19317100  0.47868000  1.0
  O  O12  1  0.21276500  0.69058000  0.01445800  1.0
  O  O13  1  0.76388100  0.84857700  0.15407300  1.0
  O  O14  1  0.78491000  0.30772300  0.97510200  1.0
  O  O15  1  0.31789800  0.68801200  0.34877500  1.0
  O  O16  1  0.83496000  0.83052200  0.83423500  1.0
  O  O17  1  0.21596500  0.18252100  0.15220500  1.0
  O  O18  1  0.73824700  0.31969200  0.65146900  1.0
  O  O19  1  0.74577700  0.77917100  0.48211600  1.0
