# generated using pymatgen
data_LiMnSnO4
_symmetry_space_group_name_H-M   'P 1'
_cell_length_a   5.91324600
_cell_length_b   6.22951708
_cell_length_c   6.27550092
_cell_angle_alpha   119.75795314
_cell_angle_beta   118.10825363
_cell_angle_gamma   90.00017476
_symmetry_Int_Tables_number   1
_chemical_formula_structural   LiMnSnO4
_chemical_formula_sum   'Li2 Mn2 Sn2 O8'
_cell_volume   168.55915649
_cell_formula_units_Z   2
loop_
 _symmetry_equiv_pos_site_id
 _symmetry_equiv_pos_as_xyz
  1  'x, y, z'
loop_
 _atom_site_type_symbol
 _atom_site_label
 _atom_site_symmetry_multiplicity
 _atom_site_fract_x
 _atom_site_fract_y
 _atom_site_fract_z
 _atom_site_occupancy
  Li  Li0  1  0.63054100  0.88053900  0.76108000  1.0
  Li  Li1  1  0.36945800  0.11946000  0.23892000  1.0
  Mn  Mn2  1  0.50001300  0.49999300  0.99999100  1.0
  Mn  Mn3  1  0.00000100  0.50000800  0.00001200  1.0
  Sn  Sn4  1  0.99999600  0.50000100  0.50000000  1.0
  Sn  Sn5  1  0.99999700  0.99999700  0.49999800  1.0
  O  O6  1  0.23342200  0.74943000  0.49885700  1.0
  O  O7  1  0.76542700  0.74942300  0.49884600  1.0
  O  O8  1  0.23457100  0.25057600  0.50115200  1.0
  O  O9  1  0.76657700  0.25057000  0.50114300  1.0
  O  O10  1  0.76618500  0.30330500  0.03236900  1.0
  O  O11  1  0.76618200  0.72906200  0.03236800  1.0
  O  O12  1  0.23381500  0.69669500  0.96763200  1.0
  O  O13  1  0.23381500  0.27093900  0.96763200  1.0
