# generated using pymatgen
data_LiMn4O8
_symmetry_space_group_name_H-M   'P 1'
_cell_length_a   5.81447450
_cell_length_b   5.84016619
_cell_length_c   5.86205147
_cell_angle_alpha   117.78266504
_cell_angle_beta   90.19296121
_cell_angle_gamma   119.73831480
_symmetry_Int_Tables_number   1
_chemical_formula_structural   LiMn4O8
_chemical_formula_sum   'Li1 Mn4 O8'
_cell_volume   145.61514313
_cell_formula_units_Z   1
loop_
 _symmetry_equiv_pos_site_id
 _symmetry_equiv_pos_as_xyz
  1  'x, y, z'
loop_
 _atom_site_type_symbol
 _atom_site_label
 _atom_site_symmetry_multiplicity
 _atom_site_fract_x
 _atom_site_fract_y
 _atom_site_fract_z
 _atom_site_occupancy
  Li  Li0  1  0.38156200  0.26440900  0.13630000  1.0
  Mn  Mn1  1  0.50281600  0.00104700  0.50020200  1.0
  Mn  Mn2  1  0.99885700  0.49793500  0.99807700  1.0
  Mn  Mn3  1  0.99972600  0.49932600  0.50234300  1.0
  Mn  Mn4  1  0.99841900  0.00088000  0.50004800  1.0
  O  O5  1  0.77234000  0.04569300  0.29918200  1.0
  O  O6  1  0.19748100  0.45279800  0.72461100  1.0
  O  O7  1  0.75523900  0.45302200  0.72307600  1.0
  O  O8  1  0.74326300  0.98454300  0.70224700  1.0
  O  O9  1  0.79681300  0.54025300  0.27125000  1.0
  O  O10  1  0.23107500  0.96066200  0.70648600  1.0
  O  O11  1  0.25365500  0.00867700  0.28842500  1.0
  O  O12  1  0.24374800  0.54074900  0.27274900  1.0
