# generated using pymatgen
data_LiMnF4
_symmetry_space_group_name_H-M   'P 1'
_cell_length_a   4.92755426
_cell_length_b   5.50277000
_cell_length_c   6.27489843
_cell_angle_alpha   63.99339053
_cell_angle_beta   67.94380501
_cell_angle_gamma   90.00000000
_symmetry_Int_Tables_number   1
_chemical_formula_structural   LiMnF4
_chemical_formula_sum   'Li2 Mn2 F8'
_cell_volume   138.92926344
_cell_formula_units_Z   2
loop_
 _symmetry_equiv_pos_site_id
 _symmetry_equiv_pos_as_xyz
  1  'x, y, z'
loop_
 _atom_site_type_symbol
 _atom_site_label
 _atom_site_symmetry_multiplicity
 _atom_site_fract_x
 _atom_site_fract_y
 _atom_site_fract_z
 _atom_site_occupancy
  Li  Li0  1  0.25593400  0.68517000  0.99063700  1.0
  Li  Li1  1  0.75593400  0.32419300  0.99063700  1.0
  Mn  Mn2  1  0.50140100  0.50124400  0.49103200  1.0
  Mn  Mn3  1  0.00140100  0.00772400  0.49103200  1.0
  F  F4  1  0.31581500  0.27554900  0.20381500  1.0
  F  F5  1  0.31497900  0.72568000  0.28693300  1.0
  F  F6  1  0.81581500  0.52063600  0.20381500  1.0
  F  F7  1  0.81497900  0.98738700  0.28693300  1.0
  F  F8  1  0.68566100  0.26314300  0.69159500  1.0
  F  F9  1  0.69248300  0.71782500  0.77138400  1.0
  F  F10  1  0.18566100  0.04526200  0.69159500  1.0
  F  F11  1  0.19248300  0.51079100  0.77138400  1.0
