# generated using pymatgen
data_LiNiO2
_symmetry_space_group_name_H-M   'P 1'
_cell_length_a   5.80042914
_cell_length_b   5.80042914
_cell_length_c   5.83416446
_cell_angle_alpha   90.95583593
_cell_angle_beta   119.29517232
_cell_angle_gamma   119.41070204
_symmetry_Int_Tables_number   1
_chemical_formula_structural   LiNiO2
_chemical_formula_sum   'Li4 Ni4 O8'
_cell_volume   140.33530422
_cell_formula_units_Z   4
loop_
 _symmetry_equiv_pos_site_id
 _symmetry_equiv_pos_as_xyz
  1  'x, y, z'
loop_
 _atom_site_type_symbol
 _atom_site_label
 _atom_site_symmetry_multiplicity
 _atom_site_fract_x
 _atom_site_fract_y
 _atom_site_fract_z
 _atom_site_occupancy
  Li  Li0  1  0.50000000  0.50000000  1.00000000  1.0
  Li  Li1  1  0.00000000  0.50000000  0.50000000  1.0
  Li  Li2  1  1.00000000  0.50000000  1.00000000  1.0
  Li  Li3  1  0.50000000  0.00000000  1.00000000  1.0
  Ni  Ni4  1  0.00000000  0.00000000  0.00000000  1.0
  Ni  Ni5  1  0.50000000  0.50000000  0.50000000  1.0
  Ni  Ni6  1  0.00000000  0.00000000  0.50000000  1.0
  Ni  Ni7  1  0.50000000  0.00000000  0.50000000  1.0
  O  O8  1  0.50844500  0.23444100  0.74288600  1.0
  O  O9  1  0.96907800  0.22063000  0.72504000  1.0
  O  O10  1  0.03739900  0.24965800  0.28705700  1.0
  O  O11  1  0.49559000  0.24403800  0.27496000  1.0
  O  O12  1  0.50441000  0.75596200  0.72504000  1.0
  O  O13  1  0.96260100  0.75034200  0.71294300  1.0
  O  O14  1  0.03092200  0.77937000  0.27496000  1.0
  O  O15  1  0.49155500  0.76555900  0.25711400  1.0
