# generated using pymatgen
data_LiNiPO4
_symmetry_space_group_name_H-M   'P 1'
_cell_length_a   5.43753566
_cell_length_b   5.43753429
_cell_length_c   6.22582687
_cell_angle_alpha   76.57988726
_cell_angle_beta   76.57979853
_cell_angle_gamma   117.94103516
_symmetry_Int_Tables_number   1
_chemical_formula_structural   LiNiPO4
_chemical_formula_sum   'Li2 Ni2 P2 O8'
_cell_volume   145.20432828
_cell_formula_units_Z   2
loop_
 _symmetry_equiv_pos_site_id
 _symmetry_equiv_pos_as_xyz
  1  'x, y, z'
loop_
 _atom_site_type_symbol
 _atom_site_label
 _atom_site_symmetry_multiplicity
 _atom_site_fract_x
 _atom_site_fract_y
 _atom_site_fract_z
 _atom_site_occupancy
  Li  Li0  1  0.56227400  0.93772500  0.25000000  1.0
  Li  Li1  1  0.81227800  0.68772200  0.75000000  1.0
  Ni  Ni2  1  0.43697400  0.06303700  0.75000300  1.0
  Ni  Ni3  1  0.18696900  0.31302500  0.25000100  1.0
  P  P4  1  0.87119400  0.62880700  0.24999900  1.0
  P  P5  1  0.12118900  0.37881200  0.74999900  1.0
  O  O6  1  0.67129500  0.62298500  0.10790100  1.0
  O  O7  1  0.26909100  0.72080000  0.60788300  1.0
  O  O8  1  0.87701400  0.82870500  0.39209900  1.0
  O  O9  1  0.77919800  0.23090800  0.89211700  1.0
  O  O10  1  0.20163500  0.74536200  0.08742200  1.0
  O  O11  1  0.16718900  0.21093600  0.58743300  1.0
  O  O12  1  0.75463900  0.29836600  0.41257700  1.0
  O  O13  1  0.28906300  0.33281000  0.91256500  1.0
