# generated using pymatgen
data_LiNiO2
_symmetry_space_group_name_H-M   'P 1'
_cell_length_a   4.05083814
_cell_length_b   4.05085114
_cell_length_c   5.10468005
_cell_angle_alpha   113.36298785
_cell_angle_beta   113.36517477
_cell_angle_gamma   90.02964616
_symmetry_Int_Tables_number   1
_chemical_formula_structural   LiNiO2
_chemical_formula_sum   'Li2 Ni2 O4'
_cell_volume   69.34246636
_cell_formula_units_Z   2
loop_
 _symmetry_equiv_pos_site_id
 _symmetry_equiv_pos_as_xyz
  1  'x, y, z'
loop_
 _atom_site_type_symbol
 _atom_site_label
 _atom_site_symmetry_multiplicity
 _atom_site_fract_x
 _atom_site_fract_y
 _atom_site_fract_z
 _atom_site_occupancy
  Li  Li0  1  0.75000500  0.25000600  0.49999900  1.0
  Li  Li1  1  0.49999400  0.49999400  0.00000100  1.0
  Ni  Ni2  1  0.00000700  0.00000700  0.00000600  1.0
  Ni  Ni3  1  0.24999400  0.74999300  0.49999400  1.0
  O  O4  1  0.22849200  0.22846900  0.45694700  1.0
  O  O5  1  0.77152100  0.77154500  0.54305200  1.0
  O  O6  1  0.47846500  0.97847700  0.95695600  1.0
  O  O7  1  0.02152200  0.52151100  0.04304600  1.0
