# generated using pymatgen
data_LiRh3
_symmetry_space_group_name_H-M   'P 1'
_cell_length_a   2.69786400
_cell_length_b   4.68446000
_cell_length_c   5.11760415
_cell_angle_alpha   117.23756530
_cell_angle_beta   105.28298667
_cell_angle_gamma   90.00000000
_symmetry_Int_Tables_number   1
_chemical_formula_structural   LiRh3
_chemical_formula_sum   'Li1 Rh3'
_cell_volume   54.91981141
_cell_formula_units_Z   1
loop_
 _symmetry_equiv_pos_site_id
 _symmetry_equiv_pos_as_xyz
  1  'x, y, z'
loop_
 _atom_site_type_symbol
 _atom_site_label
 _atom_site_symmetry_multiplicity
 _atom_site_fract_x
 _atom_site_fract_y
 _atom_site_fract_z
 _atom_site_occupancy
  Li  Li0  1  0.00000000  0.01526500  0.00000000  1.0
  Rh  Rh1  1  0.50000000  0.50545200  0.00000000  1.0
  Rh  Rh2  1  0.75563600  0.44677700  0.51127200  1.0
  Rh  Rh3  1  0.24436400  0.93550500  0.48872800  1.0
