# generated using pymatgen
data_LiTeHO4
_symmetry_space_group_name_H-M   'P 1'
_cell_length_a   3.06488200
_cell_length_b   4.99681100
_cell_length_c   5.10785290
_cell_angle_alpha   100.90650326
_cell_angle_beta   90.00000000
_cell_angle_gamma   90.00000000
_symmetry_Int_Tables_number   1
_chemical_formula_structural   LiTeHO4
_chemical_formula_sum   'Li1 Te1 H1 O4'
_cell_volume   76.81195089
_cell_formula_units_Z   1
loop_
 _symmetry_equiv_pos_site_id
 _symmetry_equiv_pos_as_xyz
  1  'x, y, z'
loop_
 _atom_site_type_symbol
 _atom_site_label
 _atom_site_symmetry_multiplicity
 _atom_site_fract_x
 _atom_site_fract_y
 _atom_site_fract_z
 _atom_site_occupancy
  H  H4  1  1.00000000  0.94910050  0.45814700  1.0
  Li  Li0  1  0.50000000  0.38919800  0.61376100  1.0
  O  O6  1  0.00000000  0.80458200  0.28853250  1.0
  O  O8  1  0.50000000  0.77120300  0.83531900  1.0
  O  O10  1  0.50000000  0.23391200  0.18315700  1.0
  O  O12  1  0.00000000  0.19189650  0.71618800  1.0
  Te  Te2  1  0.00000000  0.00590650  0.00399350  1.0
