# generated using pymatgen
data_LiTiAlO4
_symmetry_space_group_name_H-M   'P 1'
_cell_length_a   5.76808800
_cell_length_b   5.85112980
_cell_length_c   5.85112980
_cell_angle_alpha   60.89261294
_cell_angle_beta   60.46838201
_cell_angle_gamma   60.46838201
_symmetry_Int_Tables_number   1
_chemical_formula_structural   LiTiAlO4
_chemical_formula_sum   'Li2 Ti2 Al2 O8'
_cell_volume   141.55353418
_cell_formula_units_Z   2
loop_
 _symmetry_equiv_pos_site_id
 _symmetry_equiv_pos_as_xyz
  1  'x, y, z'
loop_
 _atom_site_type_symbol
 _atom_site_label
 _atom_site_symmetry_multiplicity
 _atom_site_fract_x
 _atom_site_fract_y
 _atom_site_fract_z
 _atom_site_occupancy
  Li  Li0  1  0.87143200  0.37856800  0.87856800  1.0
  Li  Li1  1  0.12856800  0.62143200  0.12143200  1.0
  Ti  Ti2  1  0.50000000  0.50000000  0.50000000  1.0
  Ti  Ti3  1  0.50000000  1.00000000  1.00000000  1.0
  Al  Al4  1  1.00000000  0.00000000  0.50000000  1.0
  Al  Al5  1  0.50000000  1.00000000  0.50000000  1.0
  O  O6  1  0.71573300  0.76327400  0.26327500  1.0
  O  O7  1  0.25771700  0.76327500  0.26327500  1.0
  O  O8  1  0.26185900  0.20509400  0.27118800  1.0
  O  O9  1  0.26185900  0.77118800  0.70509400  1.0
  O  O10  1  0.28426700  0.23672600  0.73672500  1.0
  O  O11  1  0.74228300  0.23672500  0.73672500  1.0
  O  O12  1  0.73814100  0.79490600  0.72881200  1.0
  O  O13  1  0.73814100  0.22881200  0.29490600  1.0
