# generated using pymatgen
data_LiV5O10
_symmetry_space_group_name_H-M   'P 1'
_cell_length_a   5.26952400
_cell_length_b   5.51064391
_cell_length_c   7.40036337
_cell_angle_alpha   80.34347621
_cell_angle_beta   69.14332803
_cell_angle_gamma   61.89154577
_symmetry_Int_Tables_number   1
_chemical_formula_structural   LiV5O10
_chemical_formula_sum   'Li1 V5 O10'
_cell_volume   177.12946832
_cell_formula_units_Z   1
loop_
 _symmetry_equiv_pos_site_id
 _symmetry_equiv_pos_as_xyz
  1  'x, y, z'
loop_
 _atom_site_type_symbol
 _atom_site_label
 _atom_site_symmetry_multiplicity
 _atom_site_fract_x
 _atom_site_fract_y
 _atom_site_fract_z
 _atom_site_occupancy
  Li  Li0  1  0.01442400  0.00000000  0.97115200  1.0
  V  V1  1  0.40412700  0.00000000  0.19174600  1.0
  V  V2  1  0.79210200  0.00000000  0.41579600  1.0
  V  V3  1  0.70871500  0.50000000  0.58257000  1.0
  V  V4  1  0.10516400  0.50000000  0.78967200  1.0
  V  V5  1  0.48845700  0.50000000  0.02308600  1.0
  O  O6  1  0.62444300  0.20811500  0.19668100  1.0
  O  O7  1  0.01861200  0.19331600  0.39779500  1.0
  O  O8  1  0.47411800  0.28509500  0.60052500  1.0
  O  O9  1  0.86071600  0.30715200  0.81095000  1.0
  O  O10  1  0.27784000  0.28043700  0.00703900  1.0
  O  O11  1  0.92535700  0.71490500  0.60052500  1.0
  O  O12  1  0.32833400  0.69284800  0.81095000  1.0
  O  O13  1  0.71512100  0.71956300  0.00703900  1.0
  O  O14  1  0.17887600  0.79188500  0.19668100  1.0
  O  O15  1  0.58359300  0.80668400  0.39779500  1.0
