# generated using pymatgen
data_LiVFeO4
_symmetry_space_group_name_H-M   'P 1'
_cell_length_a   5.92116800
_cell_length_b   5.99866573
_cell_length_c   5.99618000
_cell_angle_alpha   119.98629333
_cell_angle_beta   90.00000000
_cell_angle_gamma   119.57354989
_symmetry_Int_Tables_number   1
_chemical_formula_structural   LiVFeO4
_chemical_formula_sum   'Li2 V2 Fe2 O8'
_cell_volume   151.59330299
_cell_formula_units_Z   2
loop_
 _symmetry_equiv_pos_site_id
 _symmetry_equiv_pos_as_xyz
  1  'x, y, z'
loop_
 _atom_site_type_symbol
 _atom_site_label
 _atom_site_symmetry_multiplicity
 _atom_site_fract_x
 _atom_site_fract_y
 _atom_site_fract_z
 _atom_site_occupancy
  Li  Li0  1  0.11913200  0.23826400  0.36913200  1.0
  Li  Li1  1  0.88086800  0.76173600  0.63086800  1.0
  V  V2  1  0.00000000  0.50000000  0.00000000  1.0
  V  V3  1  0.50000000  0.50000000  0.00000000  1.0
  Fe  Fe4  1  0.50000000  0.00000000  1.00000000  1.0
  Fe  Fe5  1  0.50000000  0.00000000  0.50000000  1.0
  O  O6  1  0.25285200  0.96284400  0.23142200  1.0
  O  O7  1  0.25591400  0.51182800  0.78820400  1.0
  O  O8  1  0.25591300  0.51182700  0.22362400  1.0
  O  O9  1  0.70999200  0.96284400  0.23142200  1.0
  O  O10  1  0.29000800  0.03715600  0.76857800  1.0
  O  O11  1  0.74408600  0.48817200  0.21179600  1.0
  O  O12  1  0.74408600  0.48817200  0.77637600  1.0
  O  O13  1  0.74714800  0.03715600  0.76857800  1.0
