# generated using pymatgen
data_LiVF6
_symmetry_space_group_name_H-M   'P 1'
_cell_length_a   5.04433900
_cell_length_b   5.16673388
_cell_length_c   8.63715500
_cell_angle_alpha   90.00000000
_cell_angle_beta   90.00000000
_cell_angle_gamma   110.36490013
_symmetry_Int_Tables_number   1
_chemical_formula_structural   LiVF6
_chemical_formula_sum   'Li2 V2 F12'
_cell_volume   211.03777281
_cell_formula_units_Z   2
loop_
 _symmetry_equiv_pos_site_id
 _symmetry_equiv_pos_as_xyz
  1  'x, y, z'
loop_
 _atom_site_type_symbol
 _atom_site_label
 _atom_site_symmetry_multiplicity
 _atom_site_fract_x
 _atom_site_fract_y
 _atom_site_fract_z
 _atom_site_occupancy
  Li  Li0  1  0.10453300  0.04304300  0.67841400  1.0
  Li  Li1  1  0.89546700  0.95695700  0.17841400  1.0
  V  V2  1  0.24366200  0.50800800  0.99652500  1.0
  V  V3  1  0.75633800  0.49199200  0.49652500  1.0
  F  F4  1  0.28024300  0.26849800  0.14433200  1.0
  F  F5  1  0.38253800  0.28817400  0.52113100  1.0
  F  F6  1  0.32465800  0.30129200  0.84508100  1.0
  F  F7  1  0.80423000  0.26385000  0.34971200  1.0
  F  F8  1  0.87981900  0.28275800  0.98929400  1.0
  F  F9  1  0.84608400  0.28461800  0.64309000  1.0
  F  F10  1  0.67534200  0.69870800  0.34508100  1.0
  F  F11  1  0.61746200  0.71182600  0.02113100  1.0
  F  F12  1  0.71975700  0.73150200  0.64433200  1.0
  F  F13  1  0.15391600  0.71538200  0.14309000  1.0
  F  F14  1  0.12018100  0.71724200  0.48929400  1.0
  F  F15  1  0.19577000  0.73615000  0.84971200  1.0
