# generated using pymatgen
data_LiVO2
_symmetry_space_group_name_H-M   'P 1'
_cell_length_a   2.95196843
_cell_length_b   2.97667834
_cell_length_c   10.09701915
_cell_angle_alpha   89.96821042
_cell_angle_beta   89.93467259
_cell_angle_gamma   60.27341620
_symmetry_Int_Tables_number   1
_chemical_formula_structural   LiVO2
_chemical_formula_sum   'Li2 V2 O4'
_cell_volume   77.04724222
_cell_formula_units_Z   2
loop_
 _symmetry_equiv_pos_site_id
 _symmetry_equiv_pos_as_xyz
  1  'x, y, z'
loop_
 _atom_site_type_symbol
 _atom_site_label
 _atom_site_symmetry_multiplicity
 _atom_site_fract_x
 _atom_site_fract_y
 _atom_site_fract_z
 _atom_site_occupancy
  Li  Li0  1  0.66560400  0.67088000  0.75989750  1.0
  Li  Li2  1  0.33646050  0.32909300  0.25989800  1.0
  O  O8  1  0.67658950  0.64539300  0.11295650  1.0
  O  O10  1  0.32194250  0.35462700  0.61293000  1.0
  O  O12  1  0.99225550  0.01571400  0.88581600  1.0
  O  O14  1  0.00796100  0.98429400  0.38579100  1.0
  V  V4  1  0.66528800  0.66868900  0.50028150  1.0
  V  V5  1  0.33399900  0.33131100  0.00030900  1.0
