# generated using pymatgen
data_LiVO2
_symmetry_space_group_name_H-M   'P 1'
_cell_length_a   5.94376385
_cell_length_b   5.97993997
_cell_length_c   5.98074265
_cell_angle_alpha   88.36788425
_cell_angle_beta   60.76505518
_cell_angle_gamma   60.70147938
_symmetry_Int_Tables_number   1
_chemical_formula_structural   LiVO2
_chemical_formula_sum   'Li4 V4 O8'
_cell_volume   155.45708081
_cell_formula_units_Z   4
loop_
 _symmetry_equiv_pos_site_id
 _symmetry_equiv_pos_as_xyz
  1  'x, y, z'
loop_
 _atom_site_type_symbol
 _atom_site_label
 _atom_site_symmetry_multiplicity
 _atom_site_fract_x
 _atom_site_fract_y
 _atom_site_fract_z
 _atom_site_occupancy
  Li  Li0  1  0.75097000  0.05545300  0.94444500  1.0
  Li  Li1  1  0.24902300  0.94456500  0.05555200  1.0
  Li  Li2  1  0.49998700  0.50000800  0.00000900  1.0
  Li  Li3  1  0.00000500  0.00000000  0.49999500  1.0
  V  V4  1  0.50001300  0.99998600  0.49999600  1.0
  V  V5  1  0.49999300  0.50000600  0.49999800  1.0
  V  V6  1  0.99999900  0.50000900  0.00000400  1.0
  V  V7  1  0.00002200  0.49996300  0.49998900  1.0
  O  O8  1  0.49309800  0.24255700  0.74744200  1.0
  O  O9  1  0.00300000  0.25457200  0.75633700  1.0
  O  O10  1  0.99700300  0.74541800  0.24367300  1.0
  O  O11  1  0.50691700  0.75744500  0.25254500  1.0
  O  O12  1  0.46667800  0.27505900  0.28829400  1.0
  O  O13  1  0.03611000  0.71065600  0.72366400  1.0
  O  O14  1  0.53330100  0.72495200  0.71171600  1.0
  O  O15  1  0.96388200  0.28935000  0.27634300  1.0
