# generated using pymatgen
data_LiYbF4
_symmetry_space_group_name_H-M   'P 1'
_cell_length_a   5.46597800
_cell_length_b   6.22243994
_cell_length_c   5.46597800
_cell_angle_alpha   63.94619378
_cell_angle_beta   90.00000000
_cell_angle_gamma   116.05380622
_symmetry_Int_Tables_number   1
_chemical_formula_structural   LiYbF4
_chemical_formula_sum   'Li2 Yb2 F8'
_cell_volume   145.69492807
_cell_formula_units_Z   2
loop_
 _symmetry_equiv_pos_site_id
 _symmetry_equiv_pos_as_xyz
  1  'x, y, z'
loop_
 _atom_site_type_symbol
 _atom_site_label
 _atom_site_symmetry_multiplicity
 _atom_site_fract_x
 _atom_site_fract_y
 _atom_site_fract_z
 _atom_site_occupancy
  Li  Li0  1  0.75000000  0.50000000  0.75000000  1.0
  Li  Li1  1  0.00000000  0.00000000  0.00000000  1.0
  Yb  Yb2  1  0.25000000  0.50000000  0.25000000  1.0
  Yb  Yb3  1  0.50000000  0.00000000  0.50000000  1.0
  F  F4  1  0.26643900  0.16571100  0.65071000  1.0
  F  F5  1  0.85072800  0.33428900  0.56642100  1.0
  F  F6  1  0.09929000  0.66571100  0.85072800  1.0
  F  F7  1  0.56642100  0.66571100  0.48356100  1.0
  F  F8  1  0.89927200  0.16571100  0.18357900  1.0
  F  F9  1  0.18357900  0.83428900  0.26643900  1.0
  F  F10  1  0.48356100  0.33428900  0.09929000  1.0
  F  F11  1  0.65071000  0.83428900  0.89927200  1.0
