# generated using pymatgen
data_LiYS2
_symmetry_space_group_name_H-M   'P 1'
_cell_length_a   5.44946200
_cell_length_b   5.44946200
_cell_length_c   6.77152314
_cell_angle_alpha   113.72709933
_cell_angle_beta   113.72709933
_cell_angle_gamma   90.00000000
_symmetry_Int_Tables_number   1
_chemical_formula_structural   LiYS2
_chemical_formula_sum   'Li2 Y2 S4'
_cell_volume   165.35775927
_cell_formula_units_Z   2
loop_
 _symmetry_equiv_pos_site_id
 _symmetry_equiv_pos_as_xyz
  1  'x, y, z'
loop_
 _atom_site_type_symbol
 _atom_site_label
 _atom_site_symmetry_multiplicity
 _atom_site_fract_x
 _atom_site_fract_y
 _atom_site_fract_z
 _atom_site_occupancy
  Li  Li0  1  0.50000000  0.50000000  1.00000000  1.0
  Li  Li1  1  0.25000000  0.75000000  0.50000000  1.0
  Y  Y2  1  0.00000000  0.00000000  0.00000000  1.0
  Y  Y3  1  0.75000000  0.25000000  0.50000000  1.0
  S  S4  1  0.75443400  0.75443400  0.50886800  1.0
  S  S5  1  0.50443400  0.00443400  0.00886800  1.0
  S  S6  1  0.24556600  0.24556600  0.49113200  1.0
  S  S7  1  0.99556600  0.49556600  0.99113200  1.0
