# generated using pymatgen
data_LiZrS2
_symmetry_space_group_name_H-M   'P 1'
_cell_length_a   3.59655571
_cell_length_b   3.59655571
_cell_length_c   6.90213653
_cell_angle_alpha   74.89793385
_cell_angle_beta   74.89793385
_cell_angle_gamma   60.00000529
_symmetry_Int_Tables_number   1
_chemical_formula_structural   LiZrS2
_chemical_formula_sum   'Li1 Zr1 S2'
_cell_volume   73.73731297
_cell_formula_units_Z   1
loop_
 _symmetry_equiv_pos_site_id
 _symmetry_equiv_pos_as_xyz
  1  'x, y, z'
loop_
 _atom_site_type_symbol
 _atom_site_label
 _atom_site_symmetry_multiplicity
 _atom_site_fract_x
 _atom_site_fract_y
 _atom_site_fract_z
 _atom_site_occupancy
  Li  Li0  1  0.16988300  0.16988300  0.49035100  1.0
  Zr  Zr1  1  0.99717100  0.99717100  0.00848700  1.0
  S  S2  1  0.41056800  0.41056800  0.76829600  1.0
  S  S3  1  0.58237900  0.58237900  0.25286300  1.0
