# generated using pymatgen
data_Lu(Al2Fe)4
_symmetry_space_group_name_H-M   'P 1'
_cell_length_a   5.01314600
_cell_length_b   6.61264340
_cell_length_c   6.61264340
_cell_angle_alpha   81.73887984
_cell_angle_beta   67.72467709
_cell_angle_gamma   67.72467710
_symmetry_Int_Tables_number   1
_chemical_formula_structural   Lu(Al2Fe)4
_chemical_formula_sum   'Lu1 Al8 Fe4'
_cell_volume   187.71296336
_cell_formula_units_Z   1
loop_
 _symmetry_equiv_pos_site_id
 _symmetry_equiv_pos_as_xyz
  1  'x, y, z'
loop_
 _atom_site_type_symbol
 _atom_site_label
 _atom_site_symmetry_multiplicity
 _atom_site_fract_x
 _atom_site_fract_y
 _atom_site_fract_z
 _atom_site_occupancy
  Lu  Lu0  1  0.00000000  0.00000000  0.00000000  1.0
  Al  Al1  1  1.00000000  0.33916700  0.66083300  1.0
  Al  Al2  1  0.71935600  0.78064400  0.78064400  1.0
  Al  Al3  1  0.50000000  0.78064400  0.21935600  1.0
  Al  Al4  1  0.50000000  0.21935600  0.78064400  1.0
  Al  Al5  1  0.28064400  0.21935600  0.21935600  1.0
  Al  Al6  1  1.00000000  0.66083300  0.33916700  1.0
  Al  Al7  1  0.66083300  0.33916700  0.33916700  1.0
  Al  Al8  1  0.33916700  0.66083300  0.66083300  1.0
  Fe  Fe9  1  0.00000000  1.00000000  0.50000000  1.0
  Fe  Fe10  1  1.00000000  0.50000000  1.00000000  1.0
  Fe  Fe11  1  0.50000000  0.50000000  0.00000000  1.0
  Fe  Fe12  1  0.50000000  0.00000000  0.50000000  1.0
