# generated using pymatgen
data_Lu3Ga10Ni
_symmetry_space_group_name_H-M   'P 1'
_cell_length_a   4.16072800
_cell_length_b   8.08392847
_cell_length_c   8.32820325
_cell_angle_alpha   73.87933483
_cell_angle_beta   75.53447288
_cell_angle_gamma   75.08737822
_symmetry_Int_Tables_number   1
_chemical_formula_structural   Lu3Ga10Ni
_chemical_formula_sum   'Lu3 Ga10 Ni1'
_cell_volume   255.19736683
_cell_formula_units_Z   1
loop_
 _symmetry_equiv_pos_site_id
 _symmetry_equiv_pos_as_xyz
  1  'x, y, z'
loop_
 _atom_site_type_symbol
 _atom_site_label
 _atom_site_symmetry_multiplicity
 _atom_site_fract_x
 _atom_site_fract_y
 _atom_site_fract_z
 _atom_site_occupancy
  Lu  Lu0  1  0.68218200  0.30751200  0.32812400  1.0
  Lu  Lu1  1  0.31533700  0.68296400  0.68636200  1.0
  Lu  Lu2  1  0.00308400  0.00190400  0.99192800  1.0
  Ga  Ga3  1  0.83470800  0.88408800  0.44649600  1.0
  Ga  Ga4  1  0.15535100  0.10256400  0.58673400  1.0
  Ga  Ga5  1  0.84839600  0.42760200  0.87560600  1.0
  Ga  Ga6  1  0.15086600  0.57794600  0.12032200  1.0
  Ga  Ga7  1  0.99980100  0.49949800  0.50090000  1.0
  Ga  Ga8  1  0.50401200  0.28308700  0.70888900  1.0
  Ga  Ga9  1  0.50455900  0.70204400  0.28883800  1.0
  Ga  Ga10  1  0.34625400  0.03043600  0.27705600  1.0
  Ga  Ga11  1  0.65632800  0.74063800  0.94670600  1.0
  Ga  Ga12  1  0.34384500  0.28072600  0.03158400  1.0
  Ni  Ni13  1  0.65527700  0.97899200  0.71045400  1.0
