# generated using pymatgen
data_Lu5Ni2Bi
_symmetry_space_group_name_H-M   'P 1'
_cell_length_a   7.40802800
_cell_length_b   7.40802800
_cell_length_c   8.68233850
_cell_angle_alpha   115.25291712
_cell_angle_beta   115.25291711
_cell_angle_gamma   90.00000001
_symmetry_Int_Tables_number   1
_chemical_formula_structural   Lu5Ni2Bi
_chemical_formula_sum   'Lu10 Ni4 Bi2'
_cell_volume   379.98843654
_cell_formula_units_Z   2
loop_
 _symmetry_equiv_pos_site_id
 _symmetry_equiv_pos_as_xyz
  1  'x, y, z'
loop_
 _atom_site_type_symbol
 _atom_site_label
 _atom_site_symmetry_multiplicity
 _atom_site_fract_x
 _atom_site_fract_y
 _atom_site_fract_z
 _atom_site_occupancy
  Lu  Lu0  1  0.00000000  0.00000000  0.00000000  1.0
  Lu  Lu1  1  0.50000000  0.50000000  0.00000000  1.0
  Lu  Lu2  1  0.79068800  0.97417400  0.26486200  1.0
  Lu  Lu3  1  0.20931200  0.02582600  0.73513800  1.0
  Lu  Lu4  1  0.47417500  0.29068900  0.26486400  1.0
  Lu  Lu5  1  0.29068800  0.79068800  0.26486300  1.0
  Lu  Lu6  1  0.02582500  0.52582500  0.73513700  1.0
  Lu  Lu7  1  0.52582500  0.70931100  0.73513600  1.0
  Lu  Lu8  1  0.70931200  0.20931200  0.73513700  1.0
  Lu  Lu9  1  0.97417500  0.47417500  0.26486300  1.0
  Ni  Ni10  1  0.13030600  0.36969300  0.99999900  1.0
  Ni  Ni11  1  0.86969400  0.63030700  0.00000100  1.0
  Ni  Ni12  1  0.63030600  0.13030600  0.00000000  1.0
  Ni  Ni13  1  0.36969400  0.86969400  0.00000000  1.0
  Bi  Bi14  1  0.25000000  0.25000000  0.50000000  1.0
  Bi  Bi15  1  0.75000000  0.75000000  0.50000000  1.0
