# generated using pymatgen
data_Lu5SbPt2
_symmetry_space_group_name_H-M   'P 1'
_cell_length_a   7.57106000
_cell_length_b   8.63562469
_cell_length_c   7.57106000
_cell_angle_alpha   64.00058095
_cell_angle_beta   90.00000000
_cell_angle_gamma   115.99941905
_symmetry_Int_Tables_number   1
_chemical_formula_structural   Lu5SbPt2
_chemical_formula_sum   'Lu10 Sb2 Pt4'
_cell_volume   388.40405965
_cell_formula_units_Z   2
loop_
 _symmetry_equiv_pos_site_id
 _symmetry_equiv_pos_as_xyz
  1  'x, y, z'
loop_
 _atom_site_type_symbol
 _atom_site_label
 _atom_site_symmetry_multiplicity
 _atom_site_fract_x
 _atom_site_fract_y
 _atom_site_fract_z
 _atom_site_occupancy
  Lu  Lu0  1  0.00000000  0.00000000  0.00000000  1.0
  Lu  Lu1  1  0.50000000  0.00000000  0.50000000  1.0
  Lu  Lu2  1  0.79855700  0.27668300  0.02187400  1.0
  Lu  Lu3  1  0.20144300  0.72331700  0.97812600  1.0
  Lu  Lu4  1  0.47812600  0.27668300  0.70144300  1.0
  Lu  Lu5  1  0.29855700  0.27668300  0.20144300  1.0
  Lu  Lu6  1  0.02187400  0.72331700  0.47812600  1.0
  Lu  Lu7  1  0.52187400  0.72331700  0.29855700  1.0
  Lu  Lu8  1  0.70144300  0.72331700  0.79855700  1.0
  Lu  Lu9  1  0.97812600  0.27668300  0.52187400  1.0
  Sb  Sb10  1  0.25000000  0.50000000  0.75000000  1.0
  Sb  Sb11  1  0.75000000  0.50000000  0.25000000  1.0
  Pt  Pt12  1  0.13692700  0.00000100  0.63692600  1.0
  Pt  Pt13  1  0.86307300  0.99999900  0.36307400  1.0
  Pt  Pt14  1  0.63692700  0.00000000  0.86307300  1.0
  Pt  Pt15  1  0.36307300  1.00000000  0.13692700  1.0
