# generated using pymatgen
data_Lu6InCo2
_symmetry_space_group_name_H-M   'P 1'
_cell_length_a   8.23600898
_cell_length_b   8.23600898
_cell_length_c   8.23600898
_cell_angle_alpha   73.58398477
_cell_angle_beta   69.53667465
_cell_angle_gamma   111.57893279
_symmetry_Int_Tables_number   1
_chemical_formula_structural   Lu6InCo2
_chemical_formula_sum   'Lu12 In2 Co4'
_cell_volume   429.10551489
_cell_formula_units_Z   2
loop_
 _symmetry_equiv_pos_site_id
 _symmetry_equiv_pos_as_xyz
  1  'x, y, z'
loop_
 _atom_site_type_symbol
 _atom_site_label
 _atom_site_symmetry_multiplicity
 _atom_site_fract_x
 _atom_site_fract_y
 _atom_site_fract_z
 _atom_site_occupancy
  Lu  Lu0  1  0.78985500  0.23559900  0.97454600  1.0
  Lu  Lu1  1  0.21014500  0.76440100  0.02545400  1.0
  Lu  Lu2  1  0.21014500  0.23559900  0.55425600  1.0
  Lu  Lu3  1  0.78985500  0.76440100  0.44574400  1.0
  Lu  Lu4  1  0.52724600  0.71328500  0.18603900  1.0
  Lu  Lu5  1  0.47275400  0.28671500  0.81396100  1.0
  Lu  Lu6  1  0.10067500  0.28671400  0.18604000  1.0
  Lu  Lu7  1  0.89932500  0.71328600  0.81396000  1.0
  Lu  Lu8  1  0.69526900  0.01276500  0.68250300  1.0
  Lu  Lu9  1  0.30473100  0.98723500  0.31749700  1.0
  Lu  Lu10  1  0.30473100  0.62222700  0.68250400  1.0
  Lu  Lu11  1  0.69526900  0.37777300  0.31749600  1.0
  In  In12  1  0.00000000  0.50000000  0.50000000  1.0
  In  In13  1  0.00000000  0.00000000  0.00000000  1.0
  Co  Co14  1  0.62886300  0.00000000  0.37113700  1.0
  Co  Co15  1  0.37113700  0.00000000  0.62886300  1.0
  Co  Co16  1  0.50000000  0.61446400  0.88553600  1.0
  Co  Co17  1  0.50000000  0.38553600  0.11446400  1.0
