# generated using pymatgen
data_Lu7(TePd)2
_symmetry_space_group_name_H-M   'P 1'
_cell_length_a   3.89496400
_cell_length_b   9.23658253
_cell_length_c   9.23658253
_cell_angle_alpha   61.94145345
_cell_angle_beta   77.82815730
_cell_angle_gamma   77.82815729
_symmetry_Int_Tables_number   1
_chemical_formula_structural   Lu7(TePd)2
_chemical_formula_sum   'Lu7 Te2 Pd2'
_cell_volume   284.23693470
_cell_formula_units_Z   1
loop_
 _symmetry_equiv_pos_site_id
 _symmetry_equiv_pos_as_xyz
  1  'x, y, z'
loop_
 _atom_site_type_symbol
 _atom_site_label
 _atom_site_symmetry_multiplicity
 _atom_site_fract_x
 _atom_site_fract_y
 _atom_site_fract_z
 _atom_site_occupancy
  Lu  Lu0  1  0.18302400  0.44375700  0.19019500  1.0
  Lu  Lu1  1  0.81697500  0.80980500  0.55624400  1.0
  Lu  Lu2  1  0.50000000  0.50032200  0.49967800  1.0
  Lu  Lu3  1  0.63121400  0.78582800  0.95174400  1.0
  Lu  Lu4  1  0.36878600  0.04825600  0.21417200  1.0
  Lu  Lu5  1  0.85610500  0.41153600  0.87625300  1.0
  Lu  Lu6  1  0.14389400  0.12374800  0.58846400  1.0
  Te  Te7  1  0.50000000  0.16071700  0.83928300  1.0
  Te  Te8  1  1.00000000  0.76681600  0.23318400  1.0
  Pd  Pd9  1  0.73640400  0.19490500  0.33228800  1.0
  Pd  Pd10  1  0.26359700  0.66771100  0.80509500  1.0
