# generated using pymatgen
data_LuAlFe
_symmetry_space_group_name_H-M   'P 1'
_cell_length_a   5.22662830
_cell_length_b   5.22664570
_cell_length_c   8.53817800
_cell_angle_alpha   90.00000000
_cell_angle_beta   90.00000000
_cell_angle_gamma   119.10244619
_symmetry_Int_Tables_number   1
_chemical_formula_structural   LuAlFe
_chemical_formula_sum   'Lu4 Al4 Fe4'
_cell_volume   203.79700409
_cell_formula_units_Z   4
loop_
 _symmetry_equiv_pos_site_id
 _symmetry_equiv_pos_as_xyz
  1  'x, y, z'
loop_
 _atom_site_type_symbol
 _atom_site_label
 _atom_site_symmetry_multiplicity
 _atom_site_fract_x
 _atom_site_fract_y
 _atom_site_fract_z
 _atom_site_occupancy
  Lu  Lu0  1  0.33328800  0.66671900  0.55318500  1.0
  Lu  Lu1  1  0.66922300  0.33077400  0.42602800  1.0
  Lu  Lu2  1  0.66922300  0.33077400  0.07397200  1.0
  Lu  Lu3  1  0.33328800  0.66671900  0.94681500  1.0
  Al  Al4  1  0.99433300  0.00569700  0.48508400  1.0
  Al  Al5  1  0.99433300  0.00569700  0.01491600  1.0
  Al  Al6  1  0.34056200  0.16530100  0.75000000  1.0
  Al  Al7  1  0.83470300  0.65944200  0.75000000  1.0
  Fe  Fe8  1  0.83296700  0.16703100  0.75000000  1.0
  Fe  Fe9  1  0.64440700  0.81995700  0.25000000  1.0
  Fe  Fe10  1  0.18000700  0.35558700  0.25000000  1.0
  Fe  Fe11  1  0.17366600  0.82630200  0.25000000  1.0
