# generated using pymatgen
data_LuAu4
_symmetry_space_group_name_H-M   'P 1'
_cell_length_a   4.18301600
_cell_length_b   5.21177079
_cell_length_c   5.21177079
_cell_angle_alpha   80.73241721
_cell_angle_beta   66.34023440
_cell_angle_gamma   66.34023439
_symmetry_Int_Tables_number   1
_chemical_formula_structural   LuAu4
_chemical_formula_sum   'Lu1 Au4'
_cell_volume   95.32319215
_cell_formula_units_Z   1
loop_
 _symmetry_equiv_pos_site_id
 _symmetry_equiv_pos_as_xyz
  1  'x, y, z'
loop_
 _atom_site_type_symbol
 _atom_site_label
 _atom_site_symmetry_multiplicity
 _atom_site_fract_x
 _atom_site_fract_y
 _atom_site_fract_z
 _atom_site_occupancy
  Lu  Lu0  1  0.00000000  0.00000000  0.00000000  1.0
  Au  Au1  1  0.39988600  0.80048900  0.39973800  1.0
  Au  Au2  1  0.60011400  0.19951100  0.60026200  1.0
  Au  Au3  1  0.79962500  0.60026200  0.80048800  1.0
  Au  Au4  1  0.20037500  0.39973800  0.19951200  1.0
