# generated using pymatgen
data_LuMg2Cr3S8
_symmetry_space_group_name_H-M   'P 1'
_cell_length_a   7.34617631
_cell_length_b   7.34595364
_cell_length_c   7.36385993
_cell_angle_alpha   60.08281552
_cell_angle_beta   90.00241876
_cell_angle_gamma   59.99927190
_symmetry_Int_Tables_number   1
_chemical_formula_structural   LuMg2Cr3S8
_chemical_formula_sum   'Lu1 Mg2 Cr3 S8'
_cell_volume   281.33817115
_cell_formula_units_Z   1
loop_
 _symmetry_equiv_pos_site_id
 _symmetry_equiv_pos_as_xyz
  1  'x, y, z'
loop_
 _atom_site_type_symbol
 _atom_site_label
 _atom_site_symmetry_multiplicity
 _atom_site_fract_x
 _atom_site_fract_y
 _atom_site_fract_z
 _atom_site_occupancy
  Lu  Lu0  1  0.49999100  0.99998700  0.50001600  1.0
  Mg  Mg1  1  0.12388800  0.75219400  0.37171000  1.0
  Mg  Mg2  1  0.87608700  0.24784500  0.62824000  1.0
  Cr  Cr3  1  0.50000800  0.49999800  0.99999900  1.0
  Cr  Cr4  1  0.50000900  0.99999700  0.00000300  1.0
  Cr  Cr5  1  0.00000400  0.50000000  0.99998200  1.0
  S  S6  1  0.26369500  0.47258900  0.79111000  1.0
  S  S7  1  0.75191100  0.96694500  0.78497000  1.0
  S  S8  1  0.28114300  0.96695400  0.78496200  1.0
  S  S9  1  0.75191100  0.49617600  0.78496700  1.0
  S  S10  1  0.71884800  0.03303700  0.21507200  1.0
  S  S11  1  0.24809700  0.50380700  0.21504000  1.0
  S  S12  1  0.73631600  0.52740700  0.20890300  1.0
  S  S13  1  0.24809700  0.03306100  0.21502700  1.0
