# generated using pymatgen
data_LuMn6GaGe5
_symmetry_space_group_name_H-M   'P 1'
_cell_length_a   5.15667701
_cell_length_b   5.15667683
_cell_length_c   8.12148501
_cell_angle_alpha   90.00292387
_cell_angle_beta   90.00292713
_cell_angle_gamma   119.99414731
_symmetry_Int_Tables_number   1
_chemical_formula_structural   LuMn6GaGe5
_chemical_formula_sum   'Lu1 Mn6 Ga1 Ge5'
_cell_volume   187.03872409
_cell_formula_units_Z   1
loop_
 _symmetry_equiv_pos_site_id
 _symmetry_equiv_pos_as_xyz
  1  'x, y, z'
loop_
 _atom_site_type_symbol
 _atom_site_label
 _atom_site_symmetry_multiplicity
 _atom_site_fract_x
 _atom_site_fract_y
 _atom_site_fract_z
 _atom_site_occupancy
  Lu  Lu0  1  0.00001900  0.00001900  0.00140600  1.0
  Mn  Mn1  1  0.00002700  0.50000300  0.75078400  1.0
  Mn  Mn2  1  0.49999300  0.49999300  0.75079600  1.0
  Mn  Mn3  1  0.50000300  0.00002700  0.75078400  1.0
  Mn  Mn4  1  0.00002100  0.50000500  0.24866400  1.0
  Mn  Mn5  1  0.49998700  0.49998700  0.24867900  1.0
  Mn  Mn6  1  0.50000500  0.00002100  0.24866400  1.0
  Ga  Ga7  1  0.00005700  0.00005700  0.34410700  1.0
  Ge  Ge8  1  0.66666667  0.33333333  0.00066400  1.0
  Ge  Ge9  1  0.33333333  0.66666667  0.00066400  1.0
  Ge  Ge10  1  0.66666667  0.33333333  0.49795600  1.0
  Ge  Ge11  1  0.33336867  0.66670200  0.49795600  1.0
  Ge  Ge12  1  0.99997600  0.99997600  0.65887900  1.0
