# generated using pymatgen
data_Mg(AlH4)2
_symmetry_space_group_name_H-M   'P 1'
_cell_length_a   4.61868947
_cell_length_b   4.79624022
_cell_length_c   6.46489525
_cell_angle_alpha   81.07897445
_cell_angle_beta   75.54991736
_cell_angle_gamma   62.79813279
_symmetry_Int_Tables_number   1
_chemical_formula_structural   Mg(AlH4)2
_chemical_formula_sum   'Mg1 Al2 H8'
_cell_volume   123.20421634
_cell_formula_units_Z   1
loop_
 _symmetry_equiv_pos_site_id
 _symmetry_equiv_pos_as_xyz
  1  'x, y, z'
loop_
 _atom_site_type_symbol
 _atom_site_label
 _atom_site_symmetry_multiplicity
 _atom_site_fract_x
 _atom_site_fract_y
 _atom_site_fract_z
 _atom_site_occupancy
  Mg  Mg0  1  0.99320100  0.99942900  0.99540300  1.0
  Al  Al1  1  0.41781300  0.36900000  0.70399500  1.0
  Al  Al2  1  0.56774200  0.63087800  0.28719700  1.0
  H  H3  1  0.35833200  0.06258100  0.83599600  1.0
  H  H4  1  0.07936200  0.66850600  0.80807500  1.0
  H  H5  1  0.74608800  0.31167000  0.79279900  1.0
  H  H6  1  0.53437600  0.71154100  0.53028300  1.0
  H  H7  1  0.45368300  0.28797600  0.46037300  1.0
  H  H8  1  0.23725100  0.68937100  0.20016500  1.0
  H  H9  1  0.90598300  0.33190200  0.18201300  1.0
  H  H10  1  0.62617400  0.93714300  0.15370500  1.0
