# generated using pymatgen
data_Mg(InSe2)2
_symmetry_space_group_name_H-M   'P 1'
_cell_length_a   8.10258811
_cell_length_b   8.10258811
_cell_length_c   8.10258811
_cell_angle_alpha   60.00000000
_cell_angle_beta   60.00000000
_cell_angle_gamma   60.00000000
_symmetry_Int_Tables_number   1
_chemical_formula_structural   Mg(InSe2)2
_chemical_formula_sum   'Mg2 In4 Se8'
_cell_volume   376.14586271
_cell_formula_units_Z   2
loop_
 _symmetry_equiv_pos_site_id
 _symmetry_equiv_pos_as_xyz
  1  'x, y, z'
loop_
 _atom_site_type_symbol
 _atom_site_label
 _atom_site_symmetry_multiplicity
 _atom_site_fract_x
 _atom_site_fract_y
 _atom_site_fract_z
 _atom_site_occupancy
  Mg  Mg0  1  0.50000000  0.50000000  0.50000000  1.0
  Mg  Mg1  1  0.25000000  0.25000000  0.25000000  1.0
  In  In2  1  0.87500000  0.37500000  0.87500000  1.0
  In  In3  1  0.87500000  0.87500000  0.87500000  1.0
  In  In4  1  0.87500000  0.87500000  0.37500000  1.0
  In  In5  1  0.37500000  0.87500000  0.87500000  1.0
  Se  Se6  1  0.64656700  0.11781100  0.11781100  1.0
  Se  Se7  1  0.11781000  0.11781100  0.64656800  1.0
  Se  Se8  1  0.11781000  0.11781100  0.11781100  1.0
  Se  Se9  1  0.11781000  0.64656800  0.11781100  1.0
  Se  Se10  1  0.63219000  0.63218900  0.63218900  1.0
  Se  Se11  1  0.63219000  0.10343200  0.63218900  1.0
  Se  Se12  1  0.63219000  0.63218900  0.10343200  1.0
  Se  Se13  1  0.10343300  0.63218900  0.63218900  1.0
