# generated using pymatgen
data_Mg(ReO4)2
_symmetry_space_group_name_H-M   'P 1'
_cell_length_a   5.81864472
_cell_length_b   5.81863758
_cell_length_c   6.66660300
_cell_angle_alpha   90.00219131
_cell_angle_beta   89.99546056
_cell_angle_gamma   120.00049060
_symmetry_Int_Tables_number   1
_chemical_formula_structural   Mg(ReO4)2
_chemical_formula_sum   'Mg1 Re2 O8'
_cell_volume   195.46824982
_cell_formula_units_Z   1
loop_
 _symmetry_equiv_pos_site_id
 _symmetry_equiv_pos_as_xyz
  1  'x, y, z'
loop_
 _atom_site_type_symbol
 _atom_site_label
 _atom_site_symmetry_multiplicity
 _atom_site_fract_x
 _atom_site_fract_y
 _atom_site_fract_z
 _atom_site_occupancy
  Mg  Mg0  1  0.00001900  0.00002000  0.00000000  1.0
  Re  Re1  1  0.66672700  0.33339367  0.73257900  1.0
  Re  Re2  1  0.33333333  0.66671033  0.26742100  1.0
  O  O3  1  0.83016800  0.66179500  0.82055200  1.0
  O  O4  1  0.83173900  0.16991200  0.82052200  1.0
  O  O5  1  0.66670700  0.33337367  0.47250700  1.0
  O  O6  1  0.66175000  0.83169100  0.17941700  1.0
  O  O7  1  0.33828700  0.16834100  0.82058400  1.0
  O  O8  1  0.33333333  0.66666667  0.52749300  1.0
  O  O9  1  0.16830100  0.83012800  0.17947700  1.0
  O  O10  1  0.16986500  0.33824200  0.17944700  1.0
