# generated using pymatgen
data_Mg(ScS2)2
_symmetry_space_group_name_H-M   'P 1'
_cell_length_a   7.56715554
_cell_length_b   7.56715554
_cell_length_c   7.56715554
_cell_angle_alpha   60.00000000
_cell_angle_beta   60.00000000
_cell_angle_gamma   60.00000000
_symmetry_Int_Tables_number   1
_chemical_formula_structural   Mg(ScS2)2
_chemical_formula_sum   'Mg2 Sc4 S8'
_cell_volume   306.39592475
_cell_formula_units_Z   2
loop_
 _symmetry_equiv_pos_site_id
 _symmetry_equiv_pos_as_xyz
  1  'x, y, z'
loop_
 _atom_site_type_symbol
 _atom_site_label
 _atom_site_symmetry_multiplicity
 _atom_site_fract_x
 _atom_site_fract_y
 _atom_site_fract_z
 _atom_site_occupancy
  Mg  Mg0  1  0.00000000  0.00000000  0.00000000  1.0
  Mg  Mg1  1  0.75000000  0.75000000  0.75000000  1.0
  Sc  Sc2  1  0.87500000  0.37500000  0.37500000  1.0
  Sc  Sc3  1  0.37500000  0.87500000  0.37500000  1.0
  Sc  Sc4  1  0.37500000  0.37500000  0.37500000  1.0
  Sc  Sc5  1  0.37500000  0.37500000  0.87500000  1.0
  S  S6  1  0.61708100  0.61708000  0.14875900  1.0
  S  S7  1  0.60124000  0.13292000  0.13292000  1.0
  S  S8  1  0.13291900  0.13292000  0.60124100  1.0
  S  S9  1  0.61708100  0.14875900  0.61708000  1.0
  S  S10  1  0.14876000  0.61708000  0.61708000  1.0
  S  S11  1  0.13291900  0.13292000  0.13292000  1.0
  S  S12  1  0.13291900  0.60124100  0.13292000  1.0
  S  S13  1  0.61708100  0.61708000  0.61708000  1.0
