# generated using pymatgen
data_Mg2Cd
_symmetry_space_group_name_H-M   'P 1'
_cell_length_a   5.19751900
_cell_length_b   5.41569600
_cell_length_c   5.41569573
_cell_angle_alpha   120.00000166
_cell_angle_beta   90.00000000
_cell_angle_gamma   90.00000000
_symmetry_Int_Tables_number   1
_chemical_formula_structural   Mg2Cd
_chemical_formula_sum   'Mg4 Cd2'
_cell_volume   132.01863701
_cell_formula_units_Z   2
loop_
 _symmetry_equiv_pos_site_id
 _symmetry_equiv_pos_as_xyz
  1  'x, y, z'
loop_
 _atom_site_type_symbol
 _atom_site_label
 _atom_site_symmetry_multiplicity
 _atom_site_fract_x
 _atom_site_fract_y
 _atom_site_fract_z
 _atom_site_occupancy
  Mg  Mg0  1  1.00000000  0.66454200  1.00000000  1.0
  Mg  Mg1  1  0.00000000  1.00000000  0.66454200  1.0
  Mg  Mg2  1  1.00000000  0.33545800  0.33545800  1.0
  Mg  Mg3  1  0.50000000  0.00000000  0.00000000  1.0
  Cd  Cd4  1  0.50000000  0.33333333  0.66666667  1.0
  Cd  Cd5  1  0.50000000  0.66666667  0.33333333  1.0
