# generated using pymatgen
data_Mg2Cd
_symmetry_space_group_name_H-M   'P 1'
_cell_length_a   3.20359200
_cell_length_b   5.04828800
_cell_length_c   8.37410992
_cell_angle_alpha   90.00000000
_cell_angle_beta   101.02746685
_cell_angle_gamma   90.00000000
_symmetry_Int_Tables_number   1
_chemical_formula_structural   Mg2Cd
_chemical_formula_sum   'Mg4 Cd2'
_cell_volume   132.93092792
_cell_formula_units_Z   2
loop_
 _symmetry_equiv_pos_site_id
 _symmetry_equiv_pos_as_xyz
  1  'x, y, z'
loop_
 _atom_site_type_symbol
 _atom_site_label
 _atom_site_symmetry_multiplicity
 _atom_site_fract_x
 _atom_site_fract_y
 _atom_site_fract_z
 _atom_site_occupancy
  Mg  Mg0  1  0.00074900  1.00000000  0.00149800  1.0
  Mg  Mg1  1  0.33295200  1.00000000  0.66590400  1.0
  Mg  Mg2  1  0.66632200  1.00000000  0.33264400  1.0
  Mg  Mg3  1  0.44483500  0.50000000  0.88967000  1.0
  Cd  Cd4  1  0.10969500  0.50000000  0.21939000  1.0
  Cd  Cd5  1  0.77878100  0.50000000  0.55756200  1.0
