# generated using pymatgen
data_Mg2MnAl3S8
_symmetry_space_group_name_H-M   'P 1'
_cell_length_a   7.24249472
_cell_length_b   7.24506810
_cell_length_c   7.25896408
_cell_angle_alpha   119.91305366
_cell_angle_beta   90.02860985
_cell_angle_gamma   119.96862180
_symmetry_Int_Tables_number   1
_chemical_formula_structural   Mg2MnAl3S8
_chemical_formula_sum   'Mg2 Mn1 Al3 S8'
_cell_volume   269.74741530
_cell_formula_units_Z   1
loop_
 _symmetry_equiv_pos_site_id
 _symmetry_equiv_pos_as_xyz
  1  'x, y, z'
loop_
 _atom_site_type_symbol
 _atom_site_label
 _atom_site_symmetry_multiplicity
 _atom_site_fract_x
 _atom_site_fract_y
 _atom_site_fract_z
 _atom_site_occupancy
  Mg  Mg0  1  0.62490266  0.74982822  0.87469328  1.0
  Mg  Mg1  1  0.37507958  0.25014980  0.12526204  1.0
  Mn  Mn2  1  0.00001218  0.50006178  0.00004902  1.0
  Al  Al3  1  0.50003035  0.99999778  0.50003115  1.0
  Al  Al4  1  0.99996265  0.99999283  0.50001959  1.0
  Al  Al5  1  0.99999997  0.49996124  0.49998757  1.0
  S  S6  1  0.21381548  0.47382547  0.73392957  1.0
  S  S7  1  0.23927531  0.52583710  0.26516782  1.0
  S  S8  1  0.23805461  0.97609478  0.71420043  1.0
  S  S9  1  0.23959125  0.97931324  0.26566038  1.0
  S  S10  1  0.76191674  0.02385756  0.28575230  1.0
  S  S11  1  0.76045795  0.02078213  0.73435793  1.0
  S  S12  1  0.78615208  0.52612899  0.26605825  1.0
  S  S13  1  0.76074917  0.47416807  0.73482566  1.0
