# generated using pymatgen
data_Mg2MnWO6
_symmetry_space_group_name_H-M   'P 1'
_cell_length_a   5.24975141
_cell_length_b   5.25856038
_cell_length_c   5.62828958
_cell_angle_alpha   117.68981471
_cell_angle_beta   90.02537262
_cell_angle_gamma   119.91170850
_symmetry_Int_Tables_number   1
_chemical_formula_structural   Mg2MnWO6
_chemical_formula_sum   'Mg2 Mn1 W1 O6'
_cell_volume   113.66807496
_cell_formula_units_Z   1
loop_
 _symmetry_equiv_pos_site_id
 _symmetry_equiv_pos_as_xyz
  1  'x, y, z'
loop_
 _atom_site_type_symbol
 _atom_site_label
 _atom_site_symmetry_multiplicity
 _atom_site_fract_x
 _atom_site_fract_y
 _atom_site_fract_z
 _atom_site_occupancy
  Mg  Mg0  1  0.79263050  0.56837650  0.36161100  1.0
  Mg  Mg2  1  0.29318750  0.57329000  0.86914850  1.0
  Mn  Mn4  1  0.50875700  0.00453400  0.51209600  1.0
  O  O8  1  0.91080900  0.08515800  0.69754000  1.0
  O  O10  1  0.08623650  0.80038500  0.17069550  1.0
  O  O12  1  0.73118550  0.08250300  0.17312050  1.0
  O  O14  1  0.36767850  0.43538200  0.17019650  1.0
  O  O16  1  0.61145950  0.50884750  0.69675500  1.0
  O  O18  1  0.18664900  0.78267250  0.69434950  1.0
  W  W6  1  0.99530800  0.97561850  0.97235450  1.0
