# generated using pymatgen
data_Mg2TcO4
_symmetry_space_group_name_H-M   'P 1'
_cell_length_a   6.05622400
_cell_length_b   6.10768188
_cell_length_c   6.10768188
_cell_angle_alpha   60.67515296
_cell_angle_beta   60.27831119
_cell_angle_gamma   60.27831119
_symmetry_Int_Tables_number   1
_chemical_formula_structural   Mg2TcO4
_chemical_formula_sum   'Mg4 Tc2 O8'
_cell_volume   161.22771448
_cell_formula_units_Z   2
loop_
 _symmetry_equiv_pos_site_id
 _symmetry_equiv_pos_as_xyz
  1  'x, y, z'
loop_
 _atom_site_type_symbol
 _atom_site_label
 _atom_site_symmetry_multiplicity
 _atom_site_fract_x
 _atom_site_fract_y
 _atom_site_fract_z
 _atom_site_occupancy
  Mg  Mg0  1  0.86281400  0.88718600  0.38718600  1.0
  Mg  Mg1  1  0.13718600  0.11281400  0.61281400  1.0
  Mg  Mg2  1  1.00000000  0.50000000  1.00000000  1.0
  Mg  Mg3  1  0.50000000  0.50000000  0.00000000  1.0
  Tc  Tc4  1  0.50000000  0.50000000  0.50000000  1.0
  Tc  Tc5  1  0.50000000  1.00000000  1.00000000  1.0
  O  O6  1  0.26875700  0.25318400  0.75318400  1.0
  O  O7  1  0.26524100  0.71712000  0.75239900  1.0
  O  O8  1  0.72487500  0.25318400  0.75318400  1.0
  O  O9  1  0.26524000  0.25240000  0.21712000  1.0
  O  O10  1  0.73476000  0.74760000  0.78288000  1.0
  O  O11  1  0.73475900  0.28288000  0.24760100  1.0
  O  O12  1  0.27512500  0.74681600  0.24681600  1.0
  O  O13  1  0.73124300  0.74681600  0.24681600  1.0
