# generated using pymatgen
data_Mg3Fe2O5
_symmetry_space_group_name_H-M   'P 1'
_cell_length_a   4.30184151
_cell_length_b   5.26362036
_cell_length_c   5.30415240
_cell_angle_alpha   81.40110702
_cell_angle_beta   66.17683546
_cell_angle_gamma   66.03493015
_symmetry_Int_Tables_number   1
_chemical_formula_structural   Mg3Fe2O5
_chemical_formula_sum   'Mg3 Fe2 O5'
_cell_volume   100.38333338
_cell_formula_units_Z   1
loop_
 _symmetry_equiv_pos_site_id
 _symmetry_equiv_pos_as_xyz
  1  'x, y, z'
loop_
 _atom_site_type_symbol
 _atom_site_label
 _atom_site_symmetry_multiplicity
 _atom_site_fract_x
 _atom_site_fract_y
 _atom_site_fract_z
 _atom_site_occupancy
  Fe  Fe6  1  0.40194250  0.79844950  0.39647300  1.0
  Fe  Fe7  1  0.79497550  0.60256750  0.80365150  1.0
  Mg  Mg0  1  0.59847450  0.20046350  0.60012050  1.0
  Mg  Mg2  1  0.99856350  0.00159750  0.99725200  1.0
  Mg  Mg4  1  0.19837250  0.39944150  0.20296900  1.0
  O  O10  1  0.09845750  0.20048250  0.60009950  1.0
  O  O12  1  0.90307950  0.80423550  0.38800250  1.0
  O  O14  1  0.29383200  0.59678700  0.81219050  1.0
  O  O16  1  0.49718900  0.01239500  0.98863150  1.0
  O  O18  1  0.69973900  0.38864000  0.21159700  1.0
