# generated using pymatgen
data_Mg3Fe4O7
_symmetry_space_group_name_H-M   'P 1'
_cell_length_a   3.05817000
_cell_length_b   4.34548200
_cell_length_c   11.04581284
_cell_angle_alpha   101.34420668
_cell_angle_beta   97.95707605
_cell_angle_gamma   89.99999998
_symmetry_Int_Tables_number   1
_chemical_formula_structural   Mg3Fe4O7
_chemical_formula_sum   'Mg3 Fe4 O7'
_cell_volume   142.48072000
_cell_formula_units_Z   1
loop_
 _symmetry_equiv_pos_site_id
 _symmetry_equiv_pos_as_xyz
  1  'x, y, z'
loop_
 _atom_site_type_symbol
 _atom_site_label
 _atom_site_symmetry_multiplicity
 _atom_site_fract_x
 _atom_site_fract_y
 _atom_site_fract_z
 _atom_site_occupancy
  Mg  Mg0  1  0.35463400  0.35844900  0.71689800  1.0
  Mg  Mg1  1  0.50153800  0.50000000  1.00000000  1.0
  Mg  Mg2  1  0.63773600  0.64155100  0.28310200  1.0
  Fe  Fe3  1  0.07300000  0.07252500  0.14505000  1.0
  Fe  Fe4  1  0.92795000  0.92747500  0.85495000  1.0
  Fe  Fe5  1  0.22809600  0.21659900  0.43319800  1.0
  Fe  Fe6  1  0.79489800  0.78340100  0.56680200  1.0
  O  O7  1  0.48583000  0.00000000  0.00000000  1.0
  O  O8  1  0.66514800  0.14499900  0.28999700  1.0
  O  O9  1  0.77685700  0.28969900  0.57939900  1.0
  O  O10  1  0.07163400  0.57148100  0.14296200  1.0
  O  O11  1  0.92867200  0.42851900  0.85703800  1.0
  O  O12  1  0.37515000  0.85500100  0.71000200  1.0
  O  O13  1  0.19745900  0.71030100  0.42060200  1.0
