# generated using pymatgen
data_Mg3Hg
_symmetry_space_group_name_H-M   'P 1'
_cell_length_a   5.04600400
_cell_length_b   6.28296600
_cell_length_c   6.28296586
_cell_angle_alpha   120.00000076
_cell_angle_beta   90.00000000
_cell_angle_gamma   90.00000000
_symmetry_Int_Tables_number   1
_chemical_formula_structural   Mg3Hg
_chemical_formula_sum   'Mg6 Hg2'
_cell_volume   172.50735986
_cell_formula_units_Z   2
loop_
 _symmetry_equiv_pos_site_id
 _symmetry_equiv_pos_as_xyz
  1  'x, y, z'
loop_
 _atom_site_type_symbol
 _atom_site_label
 _atom_site_symmetry_multiplicity
 _atom_site_fract_x
 _atom_site_fract_y
 _atom_site_fract_z
 _atom_site_occupancy
  Mg  Mg0  1  0.75000000  0.83169300  0.16830600  1.0
  Mg  Mg1  1  0.75000000  0.83169300  0.66338600  1.0
  Mg  Mg2  1  0.75000000  0.33661300  0.16830600  1.0
  Mg  Mg3  1  0.25000000  0.66338700  0.83169400  1.0
  Mg  Mg4  1  0.25000000  0.16830700  0.33661400  1.0
  Mg  Mg5  1  0.25000000  0.16830700  0.83169400  1.0
  Hg  Hg6  1  0.75000000  0.33333333  0.66666667  1.0
  Hg  Hg7  1  0.25000000  0.66666667  0.33333333  1.0
