# generated using pymatgen
data_Mg4B3Ir2
_symmetry_space_group_name_H-M   'P 1'
_cell_length_a   4.83848000
_cell_length_b   4.93113727
_cell_length_c   6.84847947
_cell_angle_alpha   69.41781738
_cell_angle_beta   69.31364019
_cell_angle_gamma   60.61965377
_symmetry_Int_Tables_number   1
_chemical_formula_structural   Mg4B3Ir2
_chemical_formula_sum   'Mg4 B3 Ir2'
_cell_volume   129.98047348
_cell_formula_units_Z   1
loop_
 _symmetry_equiv_pos_site_id
 _symmetry_equiv_pos_as_xyz
  1  'x, y, z'
loop_
 _atom_site_type_symbol
 _atom_site_label
 _atom_site_symmetry_multiplicity
 _atom_site_fract_x
 _atom_site_fract_y
 _atom_site_fract_z
 _atom_site_occupancy
  Mg  Mg0  1  0.31235800  0.54529300  0.84256900  1.0
  Mg  Mg1  1  0.70022000  0.45470700  0.15743100  1.0
  Mg  Mg2  1  0.30664600  0.04277800  0.35665600  1.0
  Mg  Mg3  1  0.70608000  0.95722200  0.64334400  1.0
  B  B4  1  0.34046200  0.00000000  0.00000000  1.0
  B  B5  1  0.68896000  0.00000000  0.00000000  1.0
  B  B6  1  0.07435400  0.50000000  0.50000000  1.0
  Ir  Ir7  1  0.03226000  0.19475000  0.78164900  1.0
  Ir  Ir8  1  0.00865900  0.80525000  0.21835100  1.0
