# generated using pymatgen
data_Mg5In
_symmetry_space_group_name_H-M   'P 1'
_cell_length_a   5.45335770
_cell_length_b   5.45335770
_cell_length_c   6.21275420
_cell_angle_alpha   63.96729743
_cell_angle_beta   63.96729743
_cell_angle_gamma   60.00000359
_symmetry_Int_Tables_number   1
_chemical_formula_structural   Mg5In
_chemical_formula_sum   'Mg5 In1'
_cell_volume   137.93934035
_cell_formula_units_Z   1
loop_
 _symmetry_equiv_pos_site_id
 _symmetry_equiv_pos_as_xyz
  1  'x, y, z'
loop_
 _atom_site_type_symbol
 _atom_site_label
 _atom_site_symmetry_multiplicity
 _atom_site_fract_x
 _atom_site_fract_y
 _atom_site_fract_z
 _atom_site_occupancy
  Mg  Mg0  1  0.16661900  0.50000000  0.50000000  1.0
  Mg  Mg1  1  0.83338100  0.16661900  0.50000000  1.0
  Mg  Mg2  1  0.50000000  0.83338100  0.50000000  1.0
  Mg  Mg3  1  0.33292100  0.33292100  0.00123700  1.0
  Mg  Mg4  1  0.66707900  0.66707900  0.99876300  1.0
  In  In5  1  0.00000000  0.00000000  0.00000000  1.0
