# generated using pymatgen
data_Mg5Pb
_symmetry_space_group_name_H-M   'P 1'
_cell_length_a   5.63443457
_cell_length_b   5.63443457
_cell_length_c   6.19490803
_cell_angle_alpha   62.95028505
_cell_angle_beta   62.95028505
_cell_angle_gamma   59.99999334
_symmetry_Int_Tables_number   1
_chemical_formula_structural   Mg5Pb
_chemical_formula_sum   'Mg5 Pb1'
_cell_volume   144.94775231
_cell_formula_units_Z   1
loop_
 _symmetry_equiv_pos_site_id
 _symmetry_equiv_pos_as_xyz
  1  'x, y, z'
loop_
 _atom_site_type_symbol
 _atom_site_label
 _atom_site_symmetry_multiplicity
 _atom_site_fract_x
 _atom_site_fract_y
 _atom_site_fract_z
 _atom_site_occupancy
  Mg  Mg0  1  0.66769600  1.00000000  0.00000000  1.0
  Mg  Mg1  1  0.33230400  0.66769600  0.00000000  1.0
  Mg  Mg2  1  0.00000000  0.33230400  0.00000000  1.0
  Mg  Mg3  1  0.83287000  0.83287000  0.50139000  1.0
  Mg  Mg4  1  0.16713000  0.16713000  0.49861000  1.0
  Pb  Pb5  1  0.50000000  0.50000000  0.50000000  1.0
