# generated using pymatgen
data_Mg6CdIn
_symmetry_space_group_name_H-M   'P 1'
_cell_length_a   5.20036200
_cell_length_b   6.32787800
_cell_length_c   6.32787791
_cell_angle_alpha   120.00000046
_cell_angle_beta   90.00000000
_cell_angle_gamma   90.00000000
_symmetry_Int_Tables_number   1
_chemical_formula_structural   Mg6CdIn
_chemical_formula_sum   'Mg6 Cd1 In1'
_cell_volume   180.33515374
_cell_formula_units_Z   1
loop_
 _symmetry_equiv_pos_site_id
 _symmetry_equiv_pos_as_xyz
  1  'x, y, z'
loop_
 _atom_site_type_symbol
 _atom_site_label
 _atom_site_symmetry_multiplicity
 _atom_site_fract_x
 _atom_site_fract_y
 _atom_site_fract_z
 _atom_site_occupancy
  Mg  Mg0  1  0.50000000  0.33356000  0.16678000  1.0
  Mg  Mg1  1  0.50000000  0.83322000  0.66644000  1.0
  Mg  Mg2  1  0.50000000  0.83322000  0.16678000  1.0
  Mg  Mg3  1  1.00000000  0.66524600  0.83262300  1.0
  Mg  Mg4  1  1.00000000  0.16737700  0.33475400  1.0
  Mg  Mg5  1  0.00000000  0.16737700  0.83262300  1.0
  Cd  Cd6  1  0.50000000  0.33333333  0.66666667  1.0
  In  In7  1  0.00000000  0.66666667  0.33333333  1.0
