# generated using pymatgen
data_MgAg5
_symmetry_space_group_name_H-M   'P 1'
_cell_length_a   5.09857250
_cell_length_b   5.09857250
_cell_length_c   5.64907228
_cell_angle_alpha   63.17446459
_cell_angle_beta   63.17446459
_cell_angle_gamma   59.99999350
_symmetry_Int_Tables_number   1
_chemical_formula_structural   MgAg5
_chemical_formula_sum   'Mg1 Ag5'
_cell_volume   108.54504925
_cell_formula_units_Z   1
loop_
 _symmetry_equiv_pos_site_id
 _symmetry_equiv_pos_as_xyz
  1  'x, y, z'
loop_
 _atom_site_type_symbol
 _atom_site_label
 _atom_site_symmetry_multiplicity
 _atom_site_fract_x
 _atom_site_fract_y
 _atom_site_fract_z
 _atom_site_occupancy
  Mg  Mg0  1  0.50000000  0.50000000  0.50000000  1.0
  Ag  Ag1  1  0.66693200  0.00000000  0.00000000  1.0
  Ag  Ag2  1  0.33306800  0.66693200  0.00000000  1.0
  Ag  Ag3  1  0.00000000  0.33306800  0.00000000  1.0
  Ag  Ag4  1  0.83318900  0.83318900  0.50043300  1.0
  Ag  Ag5  1  0.16681100  0.16681100  0.49956700  1.0
