# generated using pymatgen
data_MgCd5
_symmetry_space_group_name_H-M   'P 1'
_cell_length_a   3.19612800
_cell_length_b   6.10708689
_cell_length_c   7.37163645
_cell_angle_alpha   105.36866153
_cell_angle_beta   90.00000000
_cell_angle_gamma   105.16939656
_symmetry_Int_Tables_number   1
_chemical_formula_structural   MgCd5
_chemical_formula_sum   'Mg1 Cd5'
_cell_volume   133.53528126
_cell_formula_units_Z   1
loop_
 _symmetry_equiv_pos_site_id
 _symmetry_equiv_pos_as_xyz
  1  'x, y, z'
loop_
 _atom_site_type_symbol
 _atom_site_label
 _atom_site_symmetry_multiplicity
 _atom_site_fract_x
 _atom_site_fract_y
 _atom_site_fract_z
 _atom_site_occupancy
  Mg  Mg0  1  0.38837100  0.77674200  0.27626400  1.0
  Cd  Cd1  1  0.99880500  0.99761000  0.00369500  1.0
  Cd  Cd2  1  0.66777400  0.33554800  0.33315000  1.0
  Cd  Cd3  1  0.05408500  0.10817000  0.60946200  1.0
  Cd  Cd4  1  0.33333333  0.66666667  0.66251400  1.0
  Cd  Cd5  1  0.72428000  0.44856000  0.94824900  1.0
