# generated using pymatgen
data_MgCd(CO3)2
_symmetry_space_group_name_H-M   'P 1'
_cell_length_a   4.85791019
_cell_length_b   4.85791019
_cell_length_c   5.95680069
_cell_angle_alpha   65.93569998
_cell_angle_beta   65.93569998
_cell_angle_gamma   59.99999736
_symmetry_Int_Tables_number   1
_chemical_formula_structural   MgCd(CO3)2
_chemical_formula_sum   'Mg1 Cd1 C2 O6'
_cell_volume   107.40344312
_cell_formula_units_Z   1
loop_
 _symmetry_equiv_pos_site_id
 _symmetry_equiv_pos_as_xyz
  1  'x, y, z'
loop_
 _atom_site_type_symbol
 _atom_site_label
 _atom_site_symmetry_multiplicity
 _atom_site_fract_x
 _atom_site_fract_y
 _atom_site_fract_z
 _atom_site_occupancy
  Mg  Mg0  1  0.50000000  0.50000000  0.50000000  1.0
  Cd  Cd1  1  0.00000000  0.00000000  0.00000000  1.0
  C  C2  1  0.24477900  0.24477900  0.26566300  1.0
  C  C3  1  0.75522100  0.75522100  0.73433700  1.0
  O  O4  1  0.27653500  0.96402000  0.26421700  1.0
  O  O5  1  0.49522800  0.27653500  0.26421700  1.0
  O  O6  1  0.96402000  0.49522800  0.26421700  1.0
  O  O7  1  0.72346500  0.03598000  0.73578300  1.0
  O  O8  1  0.50477200  0.72346500  0.73578300  1.0
  O  O9  1  0.03598000  0.50477200  0.73578300  1.0
