# generated using pymatgen
data_MgCd3(CO3)4
_symmetry_space_group_name_H-M   'P 1'
_cell_length_a   4.93907003
_cell_length_b   4.93907003
_cell_length_c   11.15903343
_cell_angle_alpha   77.21438948
_cell_angle_beta   77.21438948
_cell_angle_gamma   59.99999955
_symmetry_Int_Tables_number   1
_chemical_formula_structural   MgCd3(CO3)4
_chemical_formula_sum   'Mg1 Cd3 C4 O12'
_cell_volume   227.92061713
_cell_formula_units_Z   1
loop_
 _symmetry_equiv_pos_site_id
 _symmetry_equiv_pos_as_xyz
  1  'x, y, z'
loop_
 _atom_site_type_symbol
 _atom_site_label
 _atom_site_symmetry_multiplicity
 _atom_site_fract_x
 _atom_site_fract_y
 _atom_site_fract_z
 _atom_site_occupancy
  Mg  Mg0  1  0.50000000  0.50000000  0.50000000  1.0
  Cd  Cd1  1  0.00000000  0.00000000  0.00000000  1.0
  Cd  Cd2  1  0.75376900  0.75376900  0.73869300  1.0
  Cd  Cd3  1  0.24623100  0.24623100  0.26130700  1.0
  C  C4  1  0.87143200  0.87143200  0.38570400  1.0
  C  C5  1  0.37598600  0.37598600  0.87204200  1.0
  C  C6  1  0.12856800  0.12856800  0.61429600  1.0
  C  C7  1  0.62401400  0.62401400  0.12795800  1.0
  O  O8  1  0.14992400  0.83822300  0.38549100  1.0
  O  O9  1  0.63586100  0.38124600  0.87203700  1.0
  O  O10  1  0.83822300  0.62636200  0.38549100  1.0
  O  O11  1  0.38124600  0.11085600  0.87203700  1.0
  O  O12  1  0.62636200  0.14992400  0.38549100  1.0
  O  O13  1  0.11085600  0.63586100  0.87203700  1.0
  O  O14  1  0.16177700  0.37363800  0.61450900  1.0
  O  O15  1  0.61875400  0.88914400  0.12796300  1.0
  O  O16  1  0.37363800  0.85007600  0.61450900  1.0
  O  O17  1  0.88914400  0.36413900  0.12796300  1.0
  O  O18  1  0.85007600  0.16177700  0.61450900  1.0
  O  O19  1  0.36413900  0.61875400  0.12796300  1.0
