# generated using pymatgen
data_MgFe4NiO8
_symmetry_space_group_name_H-M   'P 1'
_cell_length_a   5.97651383
_cell_length_b   5.99634971
_cell_length_c   5.99634971
_cell_angle_alpha   60.46781571
_cell_angle_beta   60.59596051
_cell_angle_gamma   60.59596051
_symmetry_Int_Tables_number   1
_chemical_formula_structural   MgFe4NiO8
_chemical_formula_sum   'Mg1 Fe4 Ni1 O8'
_cell_volume   153.85088145
_cell_formula_units_Z   1
loop_
 _symmetry_equiv_pos_site_id
 _symmetry_equiv_pos_as_xyz
  1  'x, y, z'
loop_
 _atom_site_type_symbol
 _atom_site_label
 _atom_site_symmetry_multiplicity
 _atom_site_fract_x
 _atom_site_fract_y
 _atom_site_fract_z
 _atom_site_occupancy
  Mg  Mg0  1  1.00000000  0.50000000  0.50000000  1.0
  Fe  Fe1  1  0.13194300  0.11746200  0.11746200  1.0
  Fe  Fe2  1  0.86805700  0.88253800  0.88253800  1.0
  Fe  Fe3  1  0.50000000  0.50000000  1.00000000  1.0
  Fe  Fe4  1  0.50000000  0.00000000  0.50000000  1.0
  Ni  Ni5  1  0.50000000  0.50000000  0.50000000  1.0
  O  O6  1  0.26012400  0.25340900  0.25340900  1.0
  O  O7  1  0.73182700  0.25089700  0.25089700  1.0
  O  O8  1  0.26000300  0.24983300  0.72885900  1.0
  O  O9  1  0.26000300  0.72885900  0.24983300  1.0
  O  O10  1  0.73987600  0.74659100  0.74659100  1.0
  O  O11  1  0.26817300  0.74910300  0.74910300  1.0
  O  O12  1  0.73999700  0.75016700  0.27114100  1.0
  O  O13  1  0.73999700  0.27114100  0.75016700  1.0
