# generated using pymatgen
data_MgGaAu
_symmetry_space_group_name_H-M   'P 1'
_cell_length_a   3.41023600
_cell_length_b   7.50009800
_cell_length_c   7.50009765
_cell_angle_alpha   120.00000153
_cell_angle_beta   90.00000000
_cell_angle_gamma   90.00000000
_symmetry_Int_Tables_number   1
_chemical_formula_structural   MgGaAu
_chemical_formula_sum   'Mg3 Ga3 Au3'
_cell_volume   166.13032531
_cell_formula_units_Z   3
loop_
 _symmetry_equiv_pos_site_id
 _symmetry_equiv_pos_as_xyz
  1  'x, y, z'
loop_
 _atom_site_type_symbol
 _atom_site_label
 _atom_site_symmetry_multiplicity
 _atom_site_fract_x
 _atom_site_fract_y
 _atom_site_fract_z
 _atom_site_occupancy
  Mg  Mg0  1  0.00000000  0.61646000  1.00000000  1.0
  Mg  Mg1  1  0.00000000  0.38354000  0.38354000  1.0
  Mg  Mg2  1  1.00000000  0.00000000  0.61646000  1.0
  Ga  Ga3  1  0.50000000  0.28183200  1.00000000  1.0
  Ga  Ga4  1  0.50000000  0.71816800  0.71816800  1.0
  Ga  Ga5  1  0.50000000  0.00000000  0.28183200  1.0
  Au  Au6  1  0.00000000  0.00000000  0.00000000  1.0
  Au  Au7  1  0.50000000  0.33333333  0.66666667  1.0
  Au  Au8  1  0.50000000  0.66666667  0.33333333  1.0
