# generated using pymatgen
data_MgHg5
_symmetry_space_group_name_H-M   'P 1'
_cell_length_a   3.58069000
_cell_length_b   5.07639100
_cell_length_c   8.66672699
_cell_angle_alpha   90.00000000
_cell_angle_beta   101.92182086
_cell_angle_gamma   90.00000000
_symmetry_Int_Tables_number   1
_chemical_formula_structural   MgHg5
_chemical_formula_sum   'Mg1 Hg5'
_cell_volume   154.13697623
_cell_formula_units_Z   1
loop_
 _symmetry_equiv_pos_site_id
 _symmetry_equiv_pos_as_xyz
  1  'x, y, z'
loop_
 _atom_site_type_symbol
 _atom_site_label
 _atom_site_symmetry_multiplicity
 _atom_site_fract_x
 _atom_site_fract_y
 _atom_site_fract_z
 _atom_site_occupancy
  Mg  Mg0  1  0.77952300  0.50000000  0.55904600  1.0
  Hg  Hg1  1  0.32557500  0.00000000  0.65115000  1.0
  Hg  Hg2  1  0.66623800  0.00000000  0.33247600  1.0
  Hg  Hg3  1  0.00121600  1.00000000  0.00243200  1.0
  Hg  Hg4  1  0.43979000  0.50000000  0.87958000  1.0
  Hg  Hg5  1  0.12098900  0.50000000  0.24197800  1.0
