# generated using pymatgen
data_MgIn5
_symmetry_space_group_name_H-M   'P 1'
_cell_length_a   3.52450200
_cell_length_b   6.14121801
_cell_length_c   8.11871637
_cell_angle_alpha   108.48768767
_cell_angle_beta   90.00000000
_cell_angle_gamma   106.67572226
_symmetry_Int_Tables_number   1
_chemical_formula_structural   MgIn5
_chemical_formula_sum   'Mg1 In5'
_cell_volume   158.84675025
_cell_formula_units_Z   1
loop_
 _symmetry_equiv_pos_site_id
 _symmetry_equiv_pos_as_xyz
  1  'x, y, z'
loop_
 _atom_site_type_symbol
 _atom_site_label
 _atom_site_symmetry_multiplicity
 _atom_site_fract_x
 _atom_site_fract_y
 _atom_site_fract_z
 _atom_site_occupancy
  Mg  Mg0  1  0.38968500  0.77937000  0.27792900  1.0
  In  In1  1  0.99749800  0.99499600  0.00847500  1.0
  In  In2  1  0.71599200  0.43198400  0.94427600  1.0
  In  In3  1  0.33647200  0.67294400  0.67083200  1.0
  In  In4  1  0.05366300  0.10732600  0.60032600  1.0
  In  In5  1  0.67335900  0.34671800  0.33149500  1.0
