# generated using pymatgen
data_MgIr
_symmetry_space_group_name_H-M   'P 1'
_cell_length_a   3.12043700
_cell_length_b   3.12124747
_cell_length_c   3.12124747
_cell_angle_alpha   90.00196000
_cell_angle_beta   90.00000000
_cell_angle_gamma   90.00000000
_symmetry_Int_Tables_number   1
_chemical_formula_structural   MgIr
_chemical_formula_sum   'Mg1 Ir1'
_cell_volume   30.39987688
_cell_formula_units_Z   1
loop_
 _symmetry_equiv_pos_site_id
 _symmetry_equiv_pos_as_xyz
  1  'x, y, z'
loop_
 _atom_site_type_symbol
 _atom_site_label
 _atom_site_symmetry_multiplicity
 _atom_site_fract_x
 _atom_site_fract_y
 _atom_site_fract_z
 _atom_site_occupancy
  Ir  Ir2  1  0.00000000  0.49999900  0.99999900  1.0
  Mg  Mg0  1  0.50000000  0.99999800  0.50000000  1.0
