# generated using pymatgen
data_MgMnPO5
_symmetry_space_group_name_H-M   'P 1'
_cell_length_a   5.41460044
_cell_length_b   5.41929624
_cell_length_c   6.91200422
_cell_angle_alpha   104.96212859
_cell_angle_beta   104.91909102
_cell_angle_gamma   100.88637502
_symmetry_Int_Tables_number   1
_chemical_formula_structural   MgMnPO5
_chemical_formula_sum   'Mg2 Mn2 P2 O10'
_cell_volume   182.11984221
_cell_formula_units_Z   2
loop_
 _symmetry_equiv_pos_site_id
 _symmetry_equiv_pos_as_xyz
  1  'x, y, z'
loop_
 _atom_site_type_symbol
 _atom_site_label
 _atom_site_symmetry_multiplicity
 _atom_site_fract_x
 _atom_site_fract_y
 _atom_site_fract_z
 _atom_site_occupancy
  Mg  Mg0  1  0.89141400  0.75397100  0.29743300  1.0
  Mg  Mg1  1  0.25394200  0.38787300  0.79506000  1.0
  Mn  Mn2  1  0.51356000  0.99460600  0.49145800  1.0
  Mn  Mn3  1  0.49471900  0.01084100  0.99178100  1.0
  P  P4  1  0.12841700  0.33817400  0.23360700  1.0
  P  P5  1  0.84020600  0.63005900  0.73295700  1.0
  O  O6  1  0.27464800  0.30075900  0.06863800  1.0
  O  O7  1  0.15938500  0.12983800  0.34989600  1.0
  O  O8  1  0.63043000  0.65780900  0.84805600  1.0
  O  O9  1  0.80857100  0.78444700  0.57330600  1.0
  O  O10  1  0.82468900  0.33424500  0.62210100  1.0
  O  O11  1  0.12822000  0.72457000  0.89336700  1.0
  O  O12  1  0.22803300  0.62658400  0.39313800  1.0
  O  O13  1  0.83123300  0.32507200  0.12879200  1.0
  O  O14  1  0.40808700  0.08582200  0.73447800  1.0
  O  O15  1  0.58591300  0.90291500  0.23332500  1.0
