# generated using pymatgen
data_MgPb5
_symmetry_space_group_name_H-M   'P 1'
_cell_length_a   3.67691800
_cell_length_b   6.77579469
_cell_length_c   8.10610580
_cell_angle_alpha   108.50736181
_cell_angle_beta   90.00000000
_cell_angle_gamma   105.74327230
_symmetry_Int_Tables_number   1
_chemical_formula_structural   MgPb5
_chemical_formula_sum   'Mg1 Pb5'
_cell_volume   183.50463427
_cell_formula_units_Z   1
loop_
 _symmetry_equiv_pos_site_id
 _symmetry_equiv_pos_as_xyz
  1  'x, y, z'
loop_
 _atom_site_type_symbol
 _atom_site_label
 _atom_site_symmetry_multiplicity
 _atom_site_fract_x
 _atom_site_fract_y
 _atom_site_fract_z
 _atom_site_occupancy
  Mg  Mg0  1  0.61120000  0.22240000  0.72190900  1.0
  Pb  Pb1  1  0.00405900  0.00811800  0.99270900  1.0
  Pb  Pb2  1  0.27359700  0.54719400  0.05073800  1.0
  Pb  Pb3  1  0.66522700  0.33045400  0.33624200  1.0
  Pb  Pb4  1  0.94968900  0.89937800  0.39712500  1.0
  Pb  Pb5  1  0.32956100  0.65912200  0.66794200  1.0
