# generated using pymatgen
data_MgSn
_symmetry_space_group_name_H-M   'P 1'
_cell_length_a   3.70972600
_cell_length_b   5.21074100
_cell_length_c   7.91576359
_cell_angle_alpha   90.00000000
_cell_angle_beta   103.55184982
_cell_angle_gamma   90.00000000
_symmetry_Int_Tables_number   1
_chemical_formula_structural   MgSn
_chemical_formula_sum   'Mg3 Sn3'
_cell_volume   148.75484149
_cell_formula_units_Z   3
loop_
 _symmetry_equiv_pos_site_id
 _symmetry_equiv_pos_as_xyz
  1  'x, y, z'
loop_
 _atom_site_type_symbol
 _atom_site_label
 _atom_site_symmetry_multiplicity
 _atom_site_fract_x
 _atom_site_fract_y
 _atom_site_fract_z
 _atom_site_occupancy
  Mg  Mg0  1  0.33255600  0.00000000  0.66511200  1.0
  Mg  Mg1  1  0.10875000  0.50000000  0.21750000  1.0
  Mg  Mg2  1  0.78163100  0.50000000  0.56326200  1.0
  Sn  Sn3  1  0.99394500  0.00000000  0.98789000  1.0
  Sn  Sn4  1  0.67344900  0.00000000  0.34689800  1.0
  Sn  Sn5  1  0.44300300  0.50000000  0.88600600  1.0
