# generated using pymatgen
data_MgV2O6
_symmetry_space_group_name_H-M   'P 1'
_cell_length_a   3.53531400
_cell_length_b   5.19372745
_cell_length_c   7.05547246
_cell_angle_alpha   105.13047611
_cell_angle_beta   90.00000000
_cell_angle_gamma   109.89786926
_symmetry_Int_Tables_number   1
_chemical_formula_structural   MgV2O6
_chemical_formula_sum   'Mg1 V2 O6'
_cell_volume   117.02743473
_cell_formula_units_Z   1
loop_
 _symmetry_equiv_pos_site_id
 _symmetry_equiv_pos_as_xyz
  1  'x, y, z'
loop_
 _atom_site_type_symbol
 _atom_site_label
 _atom_site_symmetry_multiplicity
 _atom_site_fract_x
 _atom_site_fract_y
 _atom_site_fract_z
 _atom_site_occupancy
  Mg  Mg0  1  0.00000000  0.00000000  0.50000000  1.0
  V  V1  1  0.77865500  0.55731000  0.82338700  1.0
  V  V2  1  0.22134500  0.44269000  0.17661300  1.0
  O  O3  1  0.28694100  0.57388200  0.91738800  1.0
  O  O4  1  0.71305900  0.42611800  0.08261200  1.0
  O  O5  1  0.07618500  0.15237000  0.25956300  1.0
  O  O6  1  0.63312900  0.26625800  0.62314000  1.0
  O  O7  1  0.92381500  0.84763000  0.74043700  1.0
  O  O8  1  0.36687100  0.73374200  0.37686000  1.0
