# generated using pymatgen
data_MgVCrS4
_symmetry_space_group_name_H-M   'P 1'
_cell_length_a   7.11486136
_cell_length_b   7.24657328
_cell_length_c   7.24718065
_cell_angle_alpha   60.29997946
_cell_angle_beta   60.61810316
_cell_angle_gamma   60.61803951
_symmetry_Int_Tables_number   1
_chemical_formula_structural   MgVCrS4
_chemical_formula_sum   'Mg2 V2 Cr2 S8'
_cell_volume   267.26426047
_cell_formula_units_Z   2
loop_
 _symmetry_equiv_pos_site_id
 _symmetry_equiv_pos_as_xyz
  1  'x, y, z'
loop_
 _atom_site_type_symbol
 _atom_site_label
 _atom_site_symmetry_multiplicity
 _atom_site_fract_x
 _atom_site_fract_y
 _atom_site_fract_z
 _atom_site_occupancy
  Mg  Mg0  1  0.37387200  0.87621400  0.87622700  1.0
  Mg  Mg1  1  0.62611200  0.12376800  0.12380200  1.0
  V  V2  1  0.50004500  0.49997600  0.50002300  1.0
  V  V3  1  0.99996600  0.50001000  0.49999600  1.0
  Cr  Cr4  1  0.00001800  0.00000400  0.49996200  1.0
  Cr  Cr5  1  0.99995800  0.50005800  0.99997400  1.0
  S  S6  1  0.78865100  0.73713900  0.73714700  1.0
  S  S7  1  0.76483300  0.71363200  0.25677700  1.0
  S  S8  1  0.76483600  0.25677600  0.71364300  1.0
  S  S9  1  0.76297700  0.26287800  0.26290700  1.0
  S  S10  1  0.23520500  0.74317900  0.28639100  1.0
  S  S11  1  0.23702400  0.73710900  0.73710000  1.0
  S  S12  1  0.21134700  0.26287400  0.26284300  1.0
  S  S13  1  0.23515600  0.28638400  0.74320300  1.0
