# generated using pymatgen
data_MgVSiO5
_symmetry_space_group_name_H-M   'P 1'
_cell_length_a   5.29207726
_cell_length_b   5.29207726
_cell_length_c   6.98676375
_cell_angle_alpha   104.38911193
_cell_angle_beta   104.38911193
_cell_angle_gamma   104.41475573
_symmetry_Int_Tables_number   1
_chemical_formula_structural   MgVSiO5
_chemical_formula_sum   'Mg2 V2 Si2 O10'
_cell_volume   173.23011042
_cell_formula_units_Z   2
loop_
 _symmetry_equiv_pos_site_id
 _symmetry_equiv_pos_as_xyz
  1  'x, y, z'
loop_
 _atom_site_type_symbol
 _atom_site_label
 _atom_site_symmetry_multiplicity
 _atom_site_fract_x
 _atom_site_fract_y
 _atom_site_fract_z
 _atom_site_occupancy
  Mg  Mg0  1  0.17350400  0.83249700  0.76569000  1.0
  Mg  Mg1  1  0.83249700  0.17350400  0.26569000  1.0
  V  V2  1  0.49928100  0.50046100  0.50829600  1.0
  V  V3  1  0.50046100  0.49928100  0.00829600  1.0
  Si  Si4  1  0.82517900  0.17378900  0.75560700  1.0
  Si  Si5  1  0.17378900  0.82517900  0.25560700  1.0
  O  O6  1  0.59716600  0.16894900  0.87736900  1.0
  O  O7  1  0.83511600  0.40718500  0.63611400  1.0
  O  O8  1  0.40718500  0.83511600  0.13611400  1.0
  O  O9  1  0.16894900  0.59716600  0.37736900  1.0
  O  O10  1  0.22887100  0.12710800  0.42093600  1.0
  O  O11  1  0.86623400  0.77855400  0.09786700  1.0
  O  O12  1  0.77855400  0.86623400  0.59786700  1.0
  O  O13  1  0.12710800  0.22887100  0.92093600  1.0
  O  O14  1  0.58136100  0.41498400  0.25588300  1.0
  O  O15  1  0.41498400  0.58136100  0.75588300  1.0
