# generated using pymatgen
data_Mn(CuSe)2
_symmetry_space_group_name_H-M   'P 1'
_cell_length_a   8.07802040
_cell_length_b   8.07802040
_cell_length_c   8.07802040
_cell_angle_alpha   60.00000000
_cell_angle_beta   60.00000000
_cell_angle_gamma   60.00000000
_symmetry_Int_Tables_number   1
_chemical_formula_structural   Mn(CuSe)2
_chemical_formula_sum   'Mn4 Cu8 Se8'
_cell_volume   372.73471146
_cell_formula_units_Z   4
loop_
 _symmetry_equiv_pos_site_id
 _symmetry_equiv_pos_as_xyz
  1  'x, y, z'
loop_
 _atom_site_type_symbol
 _atom_site_label
 _atom_site_symmetry_multiplicity
 _atom_site_fract_x
 _atom_site_fract_y
 _atom_site_fract_z
 _atom_site_occupancy
  Mn  Mn0  1  0.87113100  0.87113200  0.38660500  1.0
  Mn  Mn1  1  0.87113100  0.87113200  0.87113200  1.0
  Mn  Mn2  1  0.87113100  0.38660500  0.87113200  1.0
  Mn  Mn3  1  0.38660400  0.87113200  0.87113200  1.0
  Cu  Cu4  1  0.25706000  0.25706000  0.74294000  1.0
  Cu  Cu5  1  0.74294000  0.74294000  0.25706000  1.0
  Cu  Cu6  1  0.25706000  0.74294000  0.74294000  1.0
  Cu  Cu7  1  0.74294000  0.25706000  0.25706000  1.0
  Cu  Cu8  1  0.25706000  0.74294000  0.25706000  1.0
  Cu  Cu9  1  0.74294000  0.25706000  0.74294000  1.0
  Cu  Cu10  1  0.25000000  0.25000000  0.25000000  1.0
  Cu  Cu11  1  0.50000000  0.50000000  0.50000000  1.0
  Se  Se12  1  0.12591300  0.12591300  0.62226100  1.0
  Se  Se13  1  0.12591300  0.12591300  0.12591300  1.0
  Se  Se14  1  0.12591300  0.62226100  0.12591300  1.0
  Se  Se15  1  0.62226100  0.12591300  0.12591300  1.0
  Se  Se16  1  0.63048900  0.63048800  0.10853500  1.0
  Se  Se17  1  0.63048900  0.63048800  0.63048800  1.0
  Se  Se18  1  0.63048900  0.10853500  0.63048800  1.0
  Se  Se19  1  0.10853600  0.63048800  0.63048800  1.0
