# generated using pymatgen
data_Mn(HO)2
_symmetry_space_group_name_H-M   'P 1'
_cell_length_a   3.36778172
_cell_length_b   3.36878954
_cell_length_c   4.84545576
_cell_angle_alpha   88.89123749
_cell_angle_beta   89.63529141
_cell_angle_gamma   60.10975168
_symmetry_Int_Tables_number   1
_chemical_formula_structural   Mn(HO)2
_chemical_formula_sum   'Mn1 H2 O2'
_cell_volume   47.65164423
_cell_formula_units_Z   1
loop_
 _symmetry_equiv_pos_site_id
 _symmetry_equiv_pos_as_xyz
  1  'x, y, z'
loop_
 _atom_site_type_symbol
 _atom_site_label
 _atom_site_symmetry_multiplicity
 _atom_site_fract_x
 _atom_site_fract_y
 _atom_site_fract_z
 _atom_site_occupancy
  H  H4  1  0.58235450  0.67234700  0.44615600  1.0
  H  H8  1  0.24089400  0.36362850  0.59786850  1.0
  Mn  Mn0  1  0.91277350  0.00810575  0.02205075  1.0
  O  O12  1  0.58110800  0.66636475  0.24538375  1.0
  O  O16  1  0.24422925  0.35207750  0.79893500  1.0
