# generated using pymatgen
data_Mn11Al4V
_symmetry_space_group_name_H-M   'P 1'
_cell_length_a   4.05487838
_cell_length_b   4.05487838
_cell_length_c   13.43573920
_cell_angle_alpha   81.32097635
_cell_angle_beta   81.32097635
_cell_angle_gamma   60.00000000
_symmetry_Int_Tables_number   1
_chemical_formula_structural   Mn11Al4V
_chemical_formula_sum   'Mn11 Al4 V1'
_cell_volume   188.38788900
_cell_formula_units_Z   1
loop_
 _symmetry_equiv_pos_site_id
 _symmetry_equiv_pos_as_xyz
  1  'x, y, z'
loop_
 _atom_site_type_symbol
 _atom_site_label
 _atom_site_symmetry_multiplicity
 _atom_site_fract_x
 _atom_site_fract_y
 _atom_site_fract_z
 _atom_site_occupancy
  Mn  Mn0  1  0.50031600  0.50031600  0.49905200  1.0
  Mn  Mn1  1  0.24962800  0.24962700  0.25111700  1.0
  Mn  Mn2  1  0.99970800  0.99970900  0.00087500  1.0
  Mn  Mn3  1  0.75057500  0.75057600  0.74827400  1.0
  Mn  Mn4  1  0.87537200  0.87537300  0.37388300  1.0
  Mn  Mn5  1  0.62468400  0.62468400  0.12594800  1.0
  Mn  Mn6  1  0.37442500  0.37442400  0.87672600  1.0
  Mn  Mn7  1  0.12529200  0.12529100  0.62412500  1.0
  Mn  Mn8  1  0.81366500  0.81366600  0.55900400  1.0
  Mn  Mn9  1  0.56250000  0.56250000  0.31250000  1.0
  Mn  Mn10  1  0.31133500  0.31133400  0.06599600  1.0
  Al  Al11  1  0.18752200  0.18752300  0.43743300  1.0
  Al  Al12  1  0.93747800  0.93747700  0.18756700  1.0
  Al  Al13  1  0.68690000  0.68690000  0.93930000  1.0
  Al  Al14  1  0.43810000  0.43810000  0.68570000  1.0
  V  V15  1  0.06250000  0.06250000  0.81250000  1.0
