# generated using pymatgen
data_Mn2Au5
_symmetry_space_group_name_H-M   'P 1'
_cell_length_a   3.93810400
_cell_length_b   5.04941090
_cell_length_c   6.63498471
_cell_angle_alpha   96.47138061
_cell_angle_beta   90.00000000
_cell_angle_gamma   112.95180998
_symmetry_Int_Tables_number   1
_chemical_formula_structural   Mn2Au5
_chemical_formula_sum   'Mn2 Au5'
_cell_volume   120.57883636
_cell_formula_units_Z   1
loop_
 _symmetry_equiv_pos_site_id
 _symmetry_equiv_pos_as_xyz
  1  'x, y, z'
loop_
 _atom_site_type_symbol
 _atom_site_label
 _atom_site_symmetry_multiplicity
 _atom_site_fract_x
 _atom_site_fract_y
 _atom_site_fract_z
 _atom_site_occupancy
  Mn  Mn0  1  0.57578900  0.15157800  0.71872300  1.0
  Mn  Mn1  1  0.42421100  0.84842200  0.28127700  1.0
  Au  Au2  1  0.86289700  0.72579400  0.56693300  1.0
  Au  Au3  1  0.71373200  0.42746400  0.14528200  1.0
  Au  Au4  1  0.28626800  0.57253600  0.85471800  1.0
  Au  Au5  1  0.13710300  0.27420600  0.43306700  1.0
  Au  Au6  1  0.00000000  0.00000000  0.00000000  1.0
