# generated using pymatgen
data_Mn2CuO4
_symmetry_space_group_name_H-M   'P 1'
_cell_length_a   6.02316809
_cell_length_b   6.02316809
_cell_length_c   6.02316809
_cell_angle_alpha   60.00000000
_cell_angle_beta   60.00000000
_cell_angle_gamma   60.00000000
_symmetry_Int_Tables_number   1
_chemical_formula_structural   Mn2CuO4
_chemical_formula_sum   'Mn4 Cu2 O8'
_cell_volume   154.51119524
_cell_formula_units_Z   2
loop_
 _symmetry_equiv_pos_site_id
 _symmetry_equiv_pos_as_xyz
  1  'x, y, z'
loop_
 _atom_site_type_symbol
 _atom_site_label
 _atom_site_symmetry_multiplicity
 _atom_site_fract_x
 _atom_site_fract_y
 _atom_site_fract_z
 _atom_site_occupancy
  Mn  Mn0  1  0.37500000  0.87500000  0.37500000  1.0
  Mn  Mn1  1  0.37500000  0.37500000  0.37500000  1.0
  Mn  Mn2  1  0.37500000  0.37500000  0.87500000  1.0
  Mn  Mn3  1  0.87500000  0.37500000  0.37500000  1.0
  Cu  Cu4  1  0.75000000  0.75000000  0.75000000  1.0
  Cu  Cu5  1  0.00000000  0.00000000  0.00000000  1.0
  O  O6  1  0.59196400  0.13601200  0.13601200  1.0
  O  O7  1  0.61398800  0.61398800  0.15803600  1.0
  O  O8  1  0.61398800  0.15803600  0.61398800  1.0
  O  O9  1  0.61398800  0.61398800  0.61398800  1.0
  O  O10  1  0.13601200  0.59196400  0.13601200  1.0
  O  O11  1  0.13601200  0.13601200  0.13601200  1.0
  O  O12  1  0.15803600  0.61398800  0.61398800  1.0
  O  O13  1  0.13601200  0.13601200  0.59196400  1.0
