# generated using pymatgen
data_Mn2InSbPd4
_symmetry_space_group_name_H-M   'P 1'
_cell_length_a   4.55889823
_cell_length_b   4.55889823
_cell_length_c   7.88461818
_cell_angle_alpha   73.19586549
_cell_angle_beta   73.19586549
_cell_angle_gamma   59.99999669
_symmetry_Int_Tables_number   1
_chemical_formula_structural   Mn2InSbPd4
_chemical_formula_sum   'Mn2 In1 Sb1 Pd4'
_cell_volume   133.77491448
_cell_formula_units_Z   1
loop_
 _symmetry_equiv_pos_site_id
 _symmetry_equiv_pos_as_xyz
  1  'x, y, z'
loop_
 _atom_site_type_symbol
 _atom_site_label
 _atom_site_symmetry_multiplicity
 _atom_site_fract_x
 _atom_site_fract_y
 _atom_site_fract_z
 _atom_site_occupancy
  Mn  Mn0  1  0.25137900  0.25137900  0.24586300  1.0
  Mn  Mn1  1  0.74862100  0.74862100  0.75413700  1.0
  In  In2  1  0.00000000  0.00000000  0.00000000  1.0
  Sb  Sb3  1  0.50000000  0.50000000  0.50000000  1.0
  Pd  Pd4  1  0.62464800  0.62464800  0.12605600  1.0
  Pd  Pd5  1  0.12505300  0.12505300  0.62484100  1.0
  Pd  Pd6  1  0.87494700  0.87494700  0.37515900  1.0
  Pd  Pd7  1  0.37535200  0.37535200  0.87394400  1.0
