# generated using pymatgen
data_Mn3(O2F)2
_symmetry_space_group_name_H-M   'P 1'
_cell_length_a   5.56231228
_cell_length_b   5.56231228
_cell_length_c   7.69370676
_cell_angle_alpha   95.85867840
_cell_angle_beta   111.18261296
_cell_angle_gamma   111.03934158
_symmetry_Int_Tables_number   1
_chemical_formula_structural   Mn3(O2F)2
_chemical_formula_sum   'Mn6 O8 F4'
_cell_volume   199.67435255
_cell_formula_units_Z   2
loop_
 _symmetry_equiv_pos_site_id
 _symmetry_equiv_pos_as_xyz
  1  'x, y, z'
loop_
 _atom_site_type_symbol
 _atom_site_label
 _atom_site_symmetry_multiplicity
 _atom_site_fract_x
 _atom_site_fract_y
 _atom_site_fract_z
 _atom_site_occupancy
  Mn  Mn0  1  0.47848400  0.67368000  0.15216400  1.0
  Mn  Mn1  1  0.00404300  0.33813000  0.34217300  1.0
  Mn  Mn2  1  0.02219100  0.66081900  0.68301000  1.0
  Mn  Mn3  1  0.47953700  0.34116900  0.82070600  1.0
  Mn  Mn4  1  0.50676100  0.99771500  0.50447600  1.0
  Mn  Mn5  1  0.00678000  0.99283300  0.99961300  1.0
  O  O6  1  0.29578000  0.63871600  0.32936100  1.0
  O  O7  1  0.30401400  0.97144300  0.66744200  1.0
  O  O8  1  0.18436400  0.76816400  0.95252800  1.0
  O  O9  1  0.19438100  0.43881400  0.63319500  1.0
  O  O10  1  0.69599900  0.36342800  0.66744200  1.0
  O  O11  1  0.69064500  0.03358100  0.32936100  1.0
  O  O12  1  0.69357900  0.69224500  0.99846100  1.0
  O  O13  1  0.30621600  0.30488200  0.99846100  1.0
  F  F14  1  0.81098900  0.88084400  0.69183300  1.0
  F  F15  1  0.81794900  0.56722600  0.38517500  1.0
  F  F16  1  0.81474700  0.22444000  0.03918700  1.0
  F  F17  1  0.19354300  0.11187100  0.30541400  1.0
