# generated using pymatgen
data_Mn3As2
_symmetry_space_group_name_H-M   'P 1'
_cell_length_a   3.42879400
_cell_length_b   6.74731069
_cell_length_c   12.87303400
_cell_angle_alpha   90.00000000
_cell_angle_beta   90.00000000
_cell_angle_gamma   104.71943149
_symmetry_Int_Tables_number   1
_chemical_formula_structural   Mn3As2
_chemical_formula_sum   'Mn12 As8'
_cell_volume   288.04547721
_cell_formula_units_Z   4
loop_
 _symmetry_equiv_pos_site_id
 _symmetry_equiv_pos_as_xyz
  1  'x, y, z'
loop_
 _atom_site_type_symbol
 _atom_site_label
 _atom_site_symmetry_multiplicity
 _atom_site_fract_x
 _atom_site_fract_y
 _atom_site_fract_z
 _atom_site_occupancy
  Mn  Mn0  1  0.17269700  0.34539400  0.10664300  1.0
  Mn  Mn1  1  0.55819700  0.11639400  0.86742200  1.0
  Mn  Mn2  1  0.96960900  0.93921800  0.18701300  1.0
  Mn  Mn3  1  0.23327700  0.46655400  0.82121000  1.0
  Mn  Mn4  1  0.37112000  0.74224000  0.02009200  1.0
  Mn  Mn5  1  0.76672300  0.53344600  0.32121000  1.0
  Mn  Mn6  1  0.10888100  0.21776200  0.36078200  1.0
  Mn  Mn7  1  0.62888000  0.25776000  0.52009200  1.0
  Mn  Mn8  1  0.82730300  0.65460600  0.60664300  1.0
  Mn  Mn9  1  0.03039100  0.06078200  0.68701300  1.0
  Mn  Mn10  1  0.89111900  0.78223800  0.86078200  1.0
  Mn  Mn11  1  0.44180300  0.88360600  0.36742200  1.0
  As  As12  1  0.26508300  0.53016600  0.46935800  1.0
  As  As13  1  0.73491700  0.46983400  0.96935800  1.0
  As  As14  1  0.40294700  0.80589400  0.73204600  1.0
  As  As15  1  0.33787300  0.67574600  0.20217100  1.0
  As  As16  1  0.59705300  0.19410600  0.23204600  1.0
  As  As17  1  0.00971600  0.01943200  0.00326500  1.0
  As  As18  1  0.66212700  0.32425400  0.70217100  1.0
  As  As19  1  0.99028400  0.98056800  0.50326500  1.0
