# generated using pymatgen
data_Mn3B4
_symmetry_space_group_name_H-M   'P 1'
_cell_length_a   2.95752800
_cell_length_b   2.97325200
_cell_length_c   6.72076937
_cell_angle_alpha   102.77945299
_cell_angle_beta   102.71073487
_cell_angle_gamma   89.99999998
_symmetry_Int_Tables_number   1
_chemical_formula_structural   Mn3B4
_chemical_formula_sum   'Mn3 B4'
_cell_volume   56.14890330
_cell_formula_units_Z   1
loop_
 _symmetry_equiv_pos_site_id
 _symmetry_equiv_pos_as_xyz
  1  'x, y, z'
loop_
 _atom_site_type_symbol
 _atom_site_label
 _atom_site_symmetry_multiplicity
 _atom_site_fract_x
 _atom_site_fract_y
 _atom_site_fract_z
 _atom_site_occupancy
  Mn  Mn0  1  0.31368800  0.81368800  0.62737600  1.0
  Mn  Mn1  1  0.68631200  0.18631200  0.37262400  1.0
  Mn  Mn2  1  0.00000000  0.00000000  0.00000000  1.0
  B  B3  1  0.56719500  0.56719500  0.13439000  1.0
  B  B4  1  0.43280500  0.43280500  0.86561000  1.0
  B  B5  1  0.14255300  0.64255300  0.28510600  1.0
  B  B6  1  0.85744700  0.35744700  0.71489400  1.0
