# generated using pymatgen
data_Mn3Pt
_symmetry_space_group_name_H-M   'P 1'
_cell_length_a   4.05071000
_cell_length_b   5.22938899
_cell_length_c   5.22938900
_cell_angle_alpha   60.00000625
_cell_angle_beta   90.00000000
_cell_angle_gamma   90.00000000
_symmetry_Int_Tables_number   1
_chemical_formula_structural   Mn3Pt
_chemical_formula_sum   'Mn6 Pt2'
_cell_volume   95.93204632
_cell_formula_units_Z   2
loop_
 _symmetry_equiv_pos_site_id
 _symmetry_equiv_pos_as_xyz
  1  'x, y, z'
loop_
 _atom_site_type_symbol
 _atom_site_label
 _atom_site_symmetry_multiplicity
 _atom_site_fract_x
 _atom_site_fract_y
 _atom_site_fract_z
 _atom_site_occupancy
  Mn  Mn0  1  0.75000100  0.69777100  0.15111500  1.0
  Mn  Mn1  1  0.75000100  0.15111400  0.15111600  1.0
  Mn  Mn2  1  0.75000100  0.15111400  0.69777000  1.0
  Mn  Mn3  1  0.25000000  0.30223000  0.84888300  1.0
  Mn  Mn4  1  0.25000000  0.84888500  0.84888500  1.0
  Mn  Mn5  1  0.25000000  0.84888500  0.30222900  1.0
  Pt  Pt6  1  0.25000000  0.33333333  0.33333333  1.0
  Pt  Pt7  1  0.75000100  0.66666667  0.66666667  1.0
