# generated using pymatgen
data_Mn6BiPO12
_symmetry_space_group_name_H-M   'P 1'
_cell_length_a   6.95860248
_cell_length_b   6.95860248
_cell_length_c   6.95860248
_cell_angle_alpha   60.00000000
_cell_angle_beta   60.00000000
_cell_angle_gamma   60.00000000
_symmetry_Int_Tables_number   1
_chemical_formula_structural   Mn6BiPO12
_chemical_formula_sum   'Mn6 Bi1 P1 O12'
_cell_volume   238.25997107
_cell_formula_units_Z   1
loop_
 _symmetry_equiv_pos_site_id
 _symmetry_equiv_pos_as_xyz
  1  'x, y, z'
loop_
 _atom_site_type_symbol
 _atom_site_label
 _atom_site_symmetry_multiplicity
 _atom_site_fract_x
 _atom_site_fract_y
 _atom_site_fract_z
 _atom_site_occupancy
  Mn  Mn0  1  0.49603500  0.49603500  0.00396500  1.0
  Mn  Mn1  1  0.00396500  0.49603500  0.49603500  1.0
  Mn  Mn2  1  0.00396500  0.49603500  0.00396500  1.0
  Mn  Mn3  1  0.00396500  0.00396500  0.49603500  1.0
  Mn  Mn4  1  0.49603500  0.00396500  0.00396500  1.0
  Mn  Mn5  1  0.49603500  0.00396500  0.49603500  1.0
  Bi  Bi6  1  0.00000000  0.00000000  0.00000000  1.0
  P  P7  1  0.50000000  0.50000000  0.50000000  1.0
  O  O8  1  0.14244700  0.57266100  0.14244600  1.0
  O  O9  1  0.14244700  0.14244600  0.14244600  1.0
  O  O10  1  0.14244700  0.14244600  0.57266100  1.0
  O  O11  1  0.57266200  0.14244600  0.14244600  1.0
  O  O12  1  0.85440000  0.43680200  0.85439900  1.0
  O  O13  1  0.85440000  0.85439900  0.85439900  1.0
  O  O14  1  0.85440000  0.85439900  0.43680200  1.0
  O  O15  1  0.43680300  0.85439900  0.85439900  1.0
  O  O16  1  0.40920300  0.77239100  0.40920300  1.0
  O  O17  1  0.40920300  0.40920300  0.40920300  1.0
  O  O18  1  0.40920300  0.40920300  0.77239100  1.0
  O  O19  1  0.77239100  0.40920300  0.40920300  1.0
