# generated using pymatgen
data_Mn7CdO12
_symmetry_space_group_name_H-M   'P 1'
_cell_length_a   6.50132026
_cell_length_b   6.50132026
_cell_length_c   6.50132026
_cell_angle_alpha   109.47122063
_cell_angle_beta   109.47122064
_cell_angle_gamma   109.47122064
_symmetry_Int_Tables_number   1
_chemical_formula_structural   Mn7CdO12
_chemical_formula_sum   'Mn7 Cd1 O12'
_cell_volume   211.53527044
_cell_formula_units_Z   1
loop_
 _symmetry_equiv_pos_site_id
 _symmetry_equiv_pos_as_xyz
  1  'x, y, z'
loop_
 _atom_site_type_symbol
 _atom_site_label
 _atom_site_symmetry_multiplicity
 _atom_site_fract_x
 _atom_site_fract_y
 _atom_site_fract_z
 _atom_site_occupancy
  Mn  Mn0  1  0.50000000  0.50000000  0.00000000  1.0
  Mn  Mn1  1  0.50000000  0.00000000  0.50000000  1.0
  Mn  Mn2  1  1.00000000  0.50000000  0.50000000  1.0
  Mn  Mn3  1  0.50000000  0.50000000  0.50000000  1.0
  Mn  Mn4  1  1.00000000  1.00000000  0.50000000  1.0
  Mn  Mn5  1  0.00000000  0.50000000  0.00000000  1.0
  Mn  Mn6  1  0.50000000  1.00000000  0.00000000  1.0
  Cd  Cd7  1  0.00000000  0.00000000  0.00000000  1.0
  O  O8  1  0.30936900  0.17933800  0.48870700  1.0
  O  O9  1  0.69063100  0.82066200  0.51129300  1.0
  O  O10  1  0.30936900  0.82066300  0.13003100  1.0
  O  O11  1  0.69063100  0.17933700  0.86996900  1.0
  O  O12  1  0.82066200  0.51129300  0.69063100  1.0
  O  O13  1  0.17933800  0.48870700  0.30936900  1.0
  O  O14  1  0.17933800  0.86996900  0.69063200  1.0
  O  O15  1  0.82066200  0.13003100  0.30936800  1.0
  O  O16  1  0.13003100  0.30936900  0.82066200  1.0
  O  O17  1  0.86996900  0.69063100  0.17933800  1.0
  O  O18  1  0.48870600  0.30936800  0.17933700  1.0
  O  O19  1  0.51129400  0.69063200  0.82066300  1.0
