# generated using pymatgen
data_Mn7O12
_symmetry_space_group_name_H-M   'P 1'
_cell_length_a   6.38418211
_cell_length_b   6.38448109
_cell_length_c   6.38539944
_cell_angle_alpha   70.36350015
_cell_angle_beta   70.63586713
_cell_angle_gamma   109.41376139
_symmetry_Int_Tables_number   1
_chemical_formula_structural   Mn7O12
_chemical_formula_sum   'Mn7 O12'
_cell_volume   200.35077990
_cell_formula_units_Z   1
loop_
 _symmetry_equiv_pos_site_id
 _symmetry_equiv_pos_as_xyz
  1  'x, y, z'
loop_
 _atom_site_type_symbol
 _atom_site_label
 _atom_site_symmetry_multiplicity
 _atom_site_fract_x
 _atom_site_fract_y
 _atom_site_fract_z
 _atom_site_occupancy
  Mn  Mn0  1  0.49999500  0.49996900  0.00001400  1.0
  Mn  Mn1  1  0.99997700  0.99997900  0.49997500  1.0
  Mn  Mn2  1  0.50004400  0.50004200  0.49998200  1.0
  Mn  Mn3  1  0.49997000  0.99996400  0.00001700  1.0
  Mn  Mn4  1  0.49996000  0.99998500  0.50001100  1.0
  Mn  Mn5  1  0.00001200  0.50003300  0.49999000  1.0
  Mn  Mn6  1  0.00000700  0.49997600  0.00003300  1.0
  O  O7  1  0.31596800  0.50547800  0.81056900  1.0
  O  O8  1  0.18927800  0.31583400  0.49487800  1.0
  O  O9  1  0.68399600  0.87344100  0.81054200  1.0
  O  O10  1  0.87329800  0.18944900  0.31615900  1.0
  O  O11  1  0.18930000  0.68415900  0.12658000  1.0
  O  O12  1  0.49449300  0.81061100  0.31615700  1.0
  O  O13  1  0.50551700  0.18940700  0.68384100  1.0
  O  O14  1  0.81070700  0.31585000  0.87341600  1.0
  O  O15  1  0.12669000  0.81055400  0.68384900  1.0
  O  O16  1  0.31601300  0.12655800  0.18945100  1.0
  O  O17  1  0.81073300  0.68417600  0.50511300  1.0
  O  O18  1  0.68404000  0.49453400  0.18942500  1.0
