# generated using pymatgen
data_Mn8Nb3Si
_symmetry_space_group_name_H-M   'P 1'
_cell_length_a   4.76371400
_cell_length_b   4.76371371
_cell_length_c   7.81869100
_cell_angle_alpha   90.00000000
_cell_angle_beta   90.00000000
_cell_angle_gamma   120.00000204
_symmetry_Int_Tables_number   1
_chemical_formula_structural   Mn8Nb3Si
_chemical_formula_sum   'Mn8 Nb3 Si1'
_cell_volume   153.65829365
_cell_formula_units_Z   1
loop_
 _symmetry_equiv_pos_site_id
 _symmetry_equiv_pos_as_xyz
  1  'x, y, z'
loop_
 _atom_site_type_symbol
 _atom_site_label
 _atom_site_symmetry_multiplicity
 _atom_site_fract_x
 _atom_site_fract_y
 _atom_site_fract_z
 _atom_site_occupancy
  Mn  Mn0  1  0.66666667  0.33333333  0.49746400  1.0
  Mn  Mn1  1  0.66666667  0.33333333  0.99040500  1.0
  Mn  Mn2  1  0.49567000  0.50433000  0.25326400  1.0
  Mn  Mn3  1  0.49567000  0.99134000  0.25326400  1.0
  Mn  Mn4  1  0.00866000  0.50433000  0.25326400  1.0
  Mn  Mn5  1  0.84025300  0.15974800  0.74742100  1.0
  Mn  Mn6  1  0.84025300  0.68050600  0.74742100  1.0
  Mn  Mn7  1  0.31949500  0.15974800  0.74742100  1.0
  Nb  Nb8  1  0.33333333  0.66666667  0.55669100  1.0
  Nb  Nb9  1  0.33333333  0.66666667  0.93411600  1.0
  Nb  Nb10  1  0.00000000  0.00000000  0.08120600  1.0
  Si  Si11  1  0.00000000  0.00000000  0.43815000  1.0
