# generated using pymatgen
data_MnBiSe2I
_symmetry_space_group_name_H-M   'P 1'
_cell_length_a   4.13355600
_cell_length_b   7.07683103
_cell_length_c   10.15846714
_cell_angle_alpha   91.78151399
_cell_angle_beta   90.00000000
_cell_angle_gamma   106.98063756
_symmetry_Int_Tables_number   1
_chemical_formula_structural   MnBiSe2I
_chemical_formula_sum   'Mn2 Bi2 Se4 I2'
_cell_volume   284.05499587
_cell_formula_units_Z   2
loop_
 _symmetry_equiv_pos_site_id
 _symmetry_equiv_pos_as_xyz
  1  'x, y, z'
loop_
 _atom_site_type_symbol
 _atom_site_label
 _atom_site_symmetry_multiplicity
 _atom_site_fract_x
 _atom_site_fract_y
 _atom_site_fract_z
 _atom_site_occupancy
  Mn  Mn0  1  0.50000000  0.00000000  0.00000000  1.0
  Mn  Mn1  1  0.50000000  0.00000000  0.50000000  1.0
  Bi  Bi2  1  0.78902400  0.57804800  0.18905400  1.0
  Bi  Bi3  1  0.21097600  0.42195200  0.81094600  1.0
  Se  Se4  1  0.57045700  0.14091400  0.75666300  1.0
  Se  Se5  1  0.86539800  0.73079600  0.94209800  1.0
  Se  Se6  1  0.42954300  0.85908600  0.24333700  1.0
  Se  Se7  1  0.13460200  0.26920400  0.05790200  1.0
  I  I8  1  0.86539200  0.73078400  0.57051000  1.0
  I  I9  1  0.13460800  0.26921600  0.42949000  1.0
