# generated using pymatgen
data_MnCo2TeO6
_symmetry_space_group_name_H-M   'P 1'
_cell_length_a   6.19076300
_cell_length_b   6.20570041
_cell_length_c   6.23107606
_cell_angle_alpha   89.88714257
_cell_angle_beta   90.36944594
_cell_angle_gamma   89.68732160
_symmetry_Int_Tables_number   1
_chemical_formula_structural   MnCo2TeO6
_chemical_formula_sum   'Mn2 Co4 Te2 O12'
_cell_volume   239.37658551
_cell_formula_units_Z   2
loop_
 _symmetry_equiv_pos_site_id
 _symmetry_equiv_pos_as_xyz
  1  'x, y, z'
loop_
 _atom_site_type_symbol
 _atom_site_label
 _atom_site_symmetry_multiplicity
 _atom_site_fract_x
 _atom_site_fract_y
 _atom_site_fract_z
 _atom_site_occupancy
  Mn  Mn0  1  0.05373200  0.43657000  0.74853200  1.0
  Mn  Mn1  1  0.74765100  0.94664400  0.56411800  1.0
  Co  Co2  1  0.56314400  0.25750700  0.05431100  1.0
  Co  Co3  1  0.94654200  0.56476200  0.25621000  1.0
  Co  Co4  1  0.25785700  0.05336900  0.43300900  1.0
  Co  Co5  1  0.43692500  0.74321500  0.94678200  1.0
  Te  Te6  1  0.49628900  0.50065800  0.49586500  1.0
  Te  Te7  1  0.00141000  0.00018000  0.00303200  1.0
  O  O8  1  0.05085000  0.08682500  0.70389300  1.0
  O  O9  1  0.69918100  0.95413400  0.91463700  1.0
  O  O10  1  0.90495100  0.29852700  0.05359600  1.0
  O  O11  1  0.95738200  0.90676700  0.29843500  1.0
  O  O12  1  0.30167700  0.05071500  0.09413900  1.0
  O  O13  1  0.09374900  0.70264100  0.95596200  1.0
  O  O14  1  0.79846600  0.57018800  0.55888900  1.0
  O  O15  1  0.56246500  0.20039700  0.42587900  1.0
  O  O16  1  0.43571600  0.43570800  0.79868600  1.0
  O  O17  1  0.19865300  0.42594500  0.42601500  1.0
  O  O18  1  0.42388600  0.79777500  0.57174100  1.0
  O  O19  1  0.56947500  0.56747300  0.19626800  1.0
