# generated using pymatgen
data_MnCoSi2
_symmetry_space_group_name_H-M   'P 1'
_cell_length_a   4.43739400
_cell_length_b   4.49414100
_cell_length_c   4.50506622
_cell_angle_alpha   90.60628205
_cell_angle_beta   90.00000000
_cell_angle_gamma   90.00000000
_symmetry_Int_Tables_number   1
_chemical_formula_structural   MnCoSi2
_chemical_formula_sum   'Mn2 Co2 Si4'
_cell_volume   89.83623659
_cell_formula_units_Z   2
loop_
 _symmetry_equiv_pos_site_id
 _symmetry_equiv_pos_as_xyz
  1  'x, y, z'
loop_
 _atom_site_type_symbol
 _atom_site_label
 _atom_site_symmetry_multiplicity
 _atom_site_fract_x
 _atom_site_fract_y
 _atom_site_fract_z
 _atom_site_occupancy
  Mn  Mn0  1  0.36218900  0.10666100  0.87124800  1.0
  Mn  Mn1  1  0.86218900  0.89333900  0.12875200  1.0
  Co  Co2  1  0.63576300  0.61008700  0.63644100  1.0
  Co  Co3  1  0.13576300  0.38991300  0.36355900  1.0
  Si  Si4  1  0.34254100  0.91191600  0.35092000  1.0
  Si  Si5  1  0.84254100  0.08808400  0.64908000  1.0
  Si  Si6  1  0.65950700  0.41169400  0.15743500  1.0
  Si  Si7  1  0.15950700  0.58830600  0.84256500  1.0
