# generated using pymatgen
data_MnCr4CdSe8
_symmetry_space_group_name_H-M   'P 1'
_cell_length_a   7.62869081
_cell_length_b   7.62869081
_cell_length_c   7.62869081
_cell_angle_alpha   60.00000000
_cell_angle_beta   60.00000000
_cell_angle_gamma   60.00000000
_symmetry_Int_Tables_number   1
_chemical_formula_structural   MnCr4CdSe8
_chemical_formula_sum   'Mn1 Cr4 Cd1 Se8'
_cell_volume   313.93160630
_cell_formula_units_Z   1
loop_
 _symmetry_equiv_pos_site_id
 _symmetry_equiv_pos_as_xyz
  1  'x, y, z'
loop_
 _atom_site_type_symbol
 _atom_site_label
 _atom_site_symmetry_multiplicity
 _atom_site_fract_x
 _atom_site_fract_y
 _atom_site_fract_z
 _atom_site_occupancy
  Mn  Mn0  1  0.50000000  0.50000000  0.50000000  1.0
  Cr  Cr1  1  0.87479200  0.87479300  0.37562200  1.0
  Cr  Cr2  1  0.87479200  0.87479300  0.87479300  1.0
  Cr  Cr3  1  0.87479200  0.37562200  0.87479300  1.0
  Cr  Cr4  1  0.37562100  0.87479300  0.87479300  1.0
  Cd  Cd5  1  0.25000000  0.25000000  0.25000000  1.0
  Se  Se6  1  0.10948900  0.10948900  0.67153300  1.0
  Se  Se7  1  0.10948900  0.10948900  0.10948900  1.0
  Se  Se8  1  0.10948900  0.67153300  0.10948900  1.0
  Se  Se9  1  0.67153300  0.10948900  0.10948900  1.0
  Se  Se10  1  0.63602500  0.63602600  0.09192300  1.0
  Se  Se11  1  0.63602500  0.63602600  0.63602600  1.0
  Se  Se12  1  0.63602500  0.09192300  0.63602600  1.0
  Se  Se13  1  0.09192200  0.63602600  0.63602600  1.0
