# generated using pymatgen
data_MnCuF6
_symmetry_space_group_name_H-M   'P 1'
_cell_length_a   4.99929318
_cell_length_b   5.10230773
_cell_length_c   5.29702356
_cell_angle_alpha   117.86393023
_cell_angle_beta   90.02223206
_cell_angle_gamma   119.31413236
_symmetry_Int_Tables_number   1
_chemical_formula_structural   MnCuF6
_chemical_formula_sum   'Mn1 Cu1 F6'
_cell_volume   99.44387167
_cell_formula_units_Z   1
loop_
 _symmetry_equiv_pos_site_id
 _symmetry_equiv_pos_as_xyz
  1  'x, y, z'
loop_
 _atom_site_type_symbol
 _atom_site_label
 _atom_site_symmetry_multiplicity
 _atom_site_fract_x
 _atom_site_fract_y
 _atom_site_fract_z
 _atom_site_occupancy
  Mn  Mn0  1  0.50000000  1.00000000  0.50000000  1.0
  Cu  Cu1  1  0.00000000  0.00000000  0.00000000  1.0
  F  F2  1  0.74222200  0.88220700  0.25405600  1.0
  F  F3  1  0.25777800  0.11779300  0.74594400  1.0
  F  F4  1  0.62536300  0.88040700  0.74041600  1.0
  F  F5  1  0.37463700  0.11959300  0.25958400  1.0
  F  F6  1  0.14963000  0.53899700  0.26730900  1.0
  F  F7  1  0.85037000  0.46100300  0.73269100  1.0
