# generated using pymatgen
data_MnFe2O3
_symmetry_space_group_name_H-M   'P 1'
_cell_length_a   4.47095500
_cell_length_b   4.47107400
_cell_length_c   6.96624178
_cell_angle_alpha   71.28203021
_cell_angle_beta   90.00000000
_cell_angle_gamma   90.00000000
_symmetry_Int_Tables_number   1
_chemical_formula_structural   MnFe2O3
_chemical_formula_sum   'Mn2 Fe4 O6'
_cell_volume   131.88972843
_cell_formula_units_Z   2
loop_
 _symmetry_equiv_pos_site_id
 _symmetry_equiv_pos_as_xyz
  1  'x, y, z'
loop_
 _atom_site_type_symbol
 _atom_site_label
 _atom_site_symmetry_multiplicity
 _atom_site_fract_x
 _atom_site_fract_y
 _atom_site_fract_z
 _atom_site_occupancy
  Mn  Mn0  1  1.00000000  0.66538200  0.66923600  1.0
  Mn  Mn1  1  0.00000000  0.33461800  0.33076400  1.0
  Fe  Fe2  1  0.50000000  0.16876500  0.66247000  1.0
  Fe  Fe3  1  0.50000000  0.83123500  0.33753000  1.0
  Fe  Fe4  1  0.00000000  0.00000000  0.00000000  1.0
  Fe  Fe5  1  0.50000000  0.50000000  1.00000000  1.0
  O  O6  1  0.50000000  0.66905400  0.66189200  1.0
  O  O7  1  0.00000000  0.16425500  0.67149000  1.0
  O  O8  1  0.50000000  0.33094600  0.33810800  1.0
  O  O9  1  0.00000000  0.83574500  0.32851000  1.0
  O  O10  1  0.00000000  0.50000000  1.00000000  1.0
  O  O11  1  0.50000000  0.00000000  0.00000000  1.0
