# generated using pymatgen
data_MnP2O7
_symmetry_space_group_name_H-M   'P 1'
_cell_length_a   4.76144300
_cell_length_b   6.89908809
_cell_length_c   7.83346700
_cell_angle_alpha   90.00000000
_cell_angle_beta   90.00000000
_cell_angle_gamma   106.07446578
_symmetry_Int_Tables_number   1
_chemical_formula_structural   MnP2O7
_chemical_formula_sum   'Mn2 P4 O14'
_cell_volume   247.26559230
_cell_formula_units_Z   2
loop_
 _symmetry_equiv_pos_site_id
 _symmetry_equiv_pos_as_xyz
  1  'x, y, z'
loop_
 _atom_site_type_symbol
 _atom_site_label
 _atom_site_symmetry_multiplicity
 _atom_site_fract_x
 _atom_site_fract_y
 _atom_site_fract_z
 _atom_site_occupancy
  Mn  Mn0  1  0.21882500  0.72826900  0.00861000  1.0
  Mn  Mn1  1  0.78117500  0.27173100  0.50861000  1.0
  P  P2  1  0.77048900  0.89817800  0.77564100  1.0
  P  P3  1  0.22951100  0.10182200  0.27564100  1.0
  P  P4  1  0.60968900  0.49051100  0.18855600  1.0
  P  P5  1  0.39031100  0.50948900  0.68855600  1.0
  O  O6  1  0.57870500  0.90727200  0.93279900  1.0
  O  O7  1  0.04567800  0.83658000  0.82352300  1.0
  O  O8  1  0.95432200  0.16342000  0.32352300  1.0
  O  O9  1  0.86592400  0.09308400  0.67340500  1.0
  O  O10  1  0.84915400  0.53883000  0.05406700  1.0
  O  O11  1  0.72136900  0.48281900  0.37186500  1.0
  O  O12  1  0.58995200  0.36855300  0.68974100  1.0
  O  O13  1  0.42129500  0.09272800  0.43279900  1.0
  O  O14  1  0.15084600  0.46117000  0.55406700  1.0
  O  O15  1  0.58240500  0.73468300  0.64251800  1.0
  O  O16  1  0.41759500  0.26531700  0.14251800  1.0
  O  O17  1  0.41004800  0.63144700  0.18974100  1.0
  O  O18  1  0.27863100  0.51718100  0.87186500  1.0
  O  O19  1  0.13407600  0.90691600  0.17340500  1.0
