# generated using pymatgen
data_MnV(Co2Si)2
_symmetry_space_group_name_H-M   'P 1'
_cell_length_a   3.99732690
_cell_length_b   3.99732690
_cell_length_c   6.91878336
_cell_angle_alpha   73.20939193
_cell_angle_beta   73.20939193
_cell_angle_gamma   60.00001815
_symmetry_Int_Tables_number   1
_chemical_formula_structural   MnV(Co2Si)2
_chemical_formula_sum   'Mn1 V1 Co4 Si2'
_cell_volume   90.25804715
_cell_formula_units_Z   1
loop_
 _symmetry_equiv_pos_site_id
 _symmetry_equiv_pos_as_xyz
  1  'x, y, z'
loop_
 _atom_site_type_symbol
 _atom_site_label
 _atom_site_symmetry_multiplicity
 _atom_site_fract_x
 _atom_site_fract_y
 _atom_site_fract_z
 _atom_site_occupancy
  Mn  Mn0  1  0.00000000  0.00000000  0.00000000  1.0
  V  V1  1  0.50000000  0.50000000  0.50000000  1.0
  Co  Co2  1  0.62483500  0.62483500  0.12549500  1.0
  Co  Co3  1  0.12492600  0.12492600  0.62522200  1.0
  Co  Co4  1  0.87507400  0.87507400  0.37477800  1.0
  Co  Co5  1  0.37516500  0.37516500  0.87450500  1.0
  Si  Si6  1  0.25016500  0.25016500  0.24950500  1.0
  Si  Si7  1  0.74983500  0.74983500  0.75049500  1.0
