# generated using pymatgen
data_MnV4O12
_symmetry_space_group_name_H-M   'P 1'
_cell_length_a   4.94210117
_cell_length_b   5.32463317
_cell_length_c   7.45118343
_cell_angle_alpha   96.28611346
_cell_angle_beta   91.02894698
_cell_angle_gamma   88.99014101
_symmetry_Int_Tables_number   1
_chemical_formula_structural   MnV4O12
_chemical_formula_sum   'Mn1 V4 O12'
_cell_volume   194.84244330
_cell_formula_units_Z   1
loop_
 _symmetry_equiv_pos_site_id
 _symmetry_equiv_pos_as_xyz
  1  'x, y, z'
loop_
 _atom_site_type_symbol
 _atom_site_label
 _atom_site_symmetry_multiplicity
 _atom_site_fract_x
 _atom_site_fract_y
 _atom_site_fract_z
 _atom_site_occupancy
  Mn  Mn0  1  0.00090300  0.60573000  0.70735100  1.0
  V  V1  1  0.02231500  0.01287000  0.01445600  1.0
  V  V2  1  0.48499800  0.47497300  0.48143600  1.0
  V  V3  1  0.98813500  0.00472200  0.48746500  1.0
  V  V4  1  0.52758900  0.50128800  0.99361800  1.0
  O  O5  1  0.28116100  0.75372000  0.58418500  1.0
  O  O6  1  0.10574800  0.96055000  0.27373800  1.0
  O  O7  1  0.30681600  0.15944400  0.97322000  1.0
  O  O8  1  0.17426600  0.29158800  0.58405700  1.0
  O  O9  1  0.80306600  0.26240400  0.06632600  1.0
  O  O10  1  0.39398200  0.47785200  0.26818800  1.0
  O  O11  1  0.66279400  0.46549000  0.77145000  1.0
  O  O12  1  0.18804700  0.64035300  0.93522300  1.0
  O  O13  1  0.80352900  0.65320600  0.48515100  1.0
  O  O14  1  0.68442800  0.76099200  0.07814500  1.0
  O  O15  1  0.89147500  0.93777500  0.77373400  1.0
  O  O16  1  0.68074700  0.15564200  0.46295700  1.0
