# generated using pymatgen
data_MnVO4
_symmetry_space_group_name_H-M   'P 1'
_cell_length_a   5.82315000
_cell_length_b   5.93619708
_cell_length_c   5.93619708
_cell_angle_alpha   60.42475946
_cell_angle_beta   60.62798573
_cell_angle_gamma   60.62798573
_symmetry_Int_Tables_number   1
_chemical_formula_structural   MnVO4
_chemical_formula_sum   'Mn2 V2 O8'
_cell_volume   146.93259859
_cell_formula_units_Z   2
loop_
 _symmetry_equiv_pos_site_id
 _symmetry_equiv_pos_as_xyz
  1  'x, y, z'
loop_
 _atom_site_type_symbol
 _atom_site_label
 _atom_site_symmetry_multiplicity
 _atom_site_fract_x
 _atom_site_fract_y
 _atom_site_fract_z
 _atom_site_occupancy
  Mn  Mn0  1  0.50000000  0.50000000  0.50000000  1.0
  Mn  Mn1  1  0.50000000  0.00000000  1.00000000  1.0
  V  V2  1  0.88203200  0.36796800  0.86796800  1.0
  V  V3  1  0.11796800  0.63203200  0.13203200  1.0
  O  O4  1  0.71948900  0.25469400  0.75469400  1.0
  O  O5  1  0.27112300  0.25469500  0.75469400  1.0
  O  O6  1  0.23562800  0.29057800  0.23816600  1.0
  O  O7  1  0.23562700  0.73816600  0.79057900  1.0
  O  O8  1  0.76437200  0.70942200  0.76183400  1.0
  O  O9  1  0.76437300  0.26183400  0.20942100  1.0
  O  O10  1  0.28051100  0.74530600  0.24530600  1.0
  O  O11  1  0.72887700  0.74530500  0.24530600  1.0
