# generated using pymatgen
data_Mo3W(SeS)4
_symmetry_space_group_name_H-M   'P 1'
_cell_length_a   3.25406400
_cell_length_b   3.25406479
_cell_length_c   36.83873200
_cell_angle_alpha   90.00000000
_cell_angle_beta   90.00000000
_cell_angle_gamma   119.99999199
_symmetry_Int_Tables_number   1
_chemical_formula_structural   Mo3W(SeS)4
_chemical_formula_sum   'Mo3 W1 Se4 S4'
_cell_volume   337.82176465
_cell_formula_units_Z   1
loop_
 _symmetry_equiv_pos_site_id
 _symmetry_equiv_pos_as_xyz
  1  'x, y, z'
loop_
 _atom_site_type_symbol
 _atom_site_label
 _atom_site_symmetry_multiplicity
 _atom_site_fract_x
 _atom_site_fract_y
 _atom_site_fract_z
 _atom_site_occupancy
  Mo  Mo0  1  0.66666667  0.33333333  0.90608600  1.0
  Mo  Mo1  1  0.66666667  0.33333333  0.53032800  1.0
  Mo  Mo2  1  0.33333333  0.66666667  0.34243400  1.0
  W  W3  1  0.33333333  0.66666667  0.71820600  1.0
  Se  Se4  1  0.66666667  0.33333333  0.29637600  1.0
  Se  Se5  1  0.33333333  0.66666667  0.57641600  1.0
  Se  Se6  1  0.33333333  0.66666667  0.48428100  1.0
  Se  Se7  1  0.66666667  0.33333333  0.38850500  1.0
  S  S8  1  0.66666667  0.33333333  0.67618400  1.0
  S  S9  1  0.33333333  0.66666667  0.94798200  1.0
  S  S10  1  0.33333333  0.66666667  0.86419800  1.0
  S  S11  1  0.66666667  0.33333333  0.76025600  1.0
