# generated using pymatgen
data_Mo3W(Se3S)2
_symmetry_space_group_name_H-M   'P 1'
_cell_length_a   3.28637400
_cell_length_b   3.28637368
_cell_length_c   37.33540200
_cell_angle_alpha   90.00000000
_cell_angle_beta   90.00000000
_cell_angle_gamma   120.00000323
_symmetry_Int_Tables_number   1
_chemical_formula_structural   Mo3W(Se3S)2
_chemical_formula_sum   'Mo3 W1 Se6 S2'
_cell_volume   349.20896080
_cell_formula_units_Z   1
loop_
 _symmetry_equiv_pos_site_id
 _symmetry_equiv_pos_as_xyz
  1  'x, y, z'
loop_
 _atom_site_type_symbol
 _atom_site_label
 _atom_site_symmetry_multiplicity
 _atom_site_fract_x
 _atom_site_fract_y
 _atom_site_fract_z
 _atom_site_occupancy
  Mo  Mo0  1  0.00000000  0.00000000  0.90609600  1.0
  Mo  Mo1  1  0.66666667  0.33333333  0.71820400  1.0
  Mo  Mo2  1  0.66666667  0.33333333  0.34246100  1.0
  W  W3  1  0.00000000  0.00000000  0.53034100  1.0
  Se  Se4  1  0.00000000  0.00000000  0.67301800  1.0
  Se  Se5  1  0.00000000  0.00000000  0.29728700  1.0
  Se  Se6  1  0.66666667  0.33333333  0.95125700  1.0
  Se  Se7  1  0.66666667  0.33333333  0.86090700  1.0
  Se  Se8  1  0.00000000  0.00000000  0.76336100  1.0
  Se  Se9  1  0.00000000  0.00000000  0.38765000  1.0
  S  S10  1  0.66666667  0.33333333  0.57161500  1.0
  S  S11  1  0.66666667  0.33333333  0.48905500  1.0
