# generated using pymatgen
data_MoH4O5
_symmetry_space_group_name_H-M   'P 1'
_cell_length_a   4.05172900
_cell_length_b   6.39339616
_cell_length_c   7.72918399
_cell_angle_alpha   97.53976492
_cell_angle_beta   89.87280170
_cell_angle_gamma   89.98705033
_symmetry_Int_Tables_number   1
_chemical_formula_structural   MoH4O5
_chemical_formula_sum   'Mo2 H8 O10'
_cell_volume   198.48756320
_cell_formula_units_Z   2
loop_
 _symmetry_equiv_pos_site_id
 _symmetry_equiv_pos_as_xyz
  1  'x, y, z'
loop_
 _atom_site_type_symbol
 _atom_site_label
 _atom_site_symmetry_multiplicity
 _atom_site_fract_x
 _atom_site_fract_y
 _atom_site_fract_z
 _atom_site_occupancy
  Mo  Mo0  1  0.95840100  0.99861900  0.73384500  1.0
  Mo  Mo1  1  0.08954200  0.02426000  0.24083000  1.0
  H  H2  1  0.49489900  0.45225500  0.12314600  1.0
  H  H3  1  0.23027400  0.39489800  0.90208700  1.0
  H  H4  1  0.70787100  0.42275600  0.94722400  1.0
  H  H5  1  0.50839000  0.59962200  0.57205600  1.0
  H  H6  1  0.70963700  0.42359800  0.44924600  1.0
  H  H7  1  0.21137300  0.38814600  0.39487900  1.0
  H  H8  1  0.00851800  0.44876800  0.73924200  1.0
  H  H9  1  0.01986300  0.58175800  0.25941000  1.0
  O  O10  1  0.02674600  0.02966700  0.01065300  1.0
  O  O11  1  0.01467100  0.05800000  0.51227900  1.0
  O  O12  1  0.50024200  0.48426600  0.00330100  1.0
  O  O13  1  0.50792500  0.45147800  0.52245100  1.0
  O  O14  1  0.52180200  0.02264700  0.75668700  1.0
  O  O15  1  0.52229500  0.04256100  0.25600700  1.0
  O  O16  1  0.01717300  0.72528400  0.70533900  1.0
  O  O17  1  0.02458900  0.34428600  0.82253800  1.0
  O  O18  1  0.03859900  0.34797100  0.29970800  1.0
  O  O19  1  0.02853900  0.73925600  0.24737400  1.0
