# generated using pymatgen
data_MoPd2Rh
_symmetry_space_group_name_H-M   'P 1'
_cell_length_a   2.77943994
_cell_length_b   2.77943994
_cell_length_c   9.22763727
_cell_angle_alpha   81.33805774
_cell_angle_beta   81.33805774
_cell_angle_gamma   60.00000142
_symmetry_Int_Tables_number   1
_chemical_formula_structural   MoPd2Rh
_chemical_formula_sum   'Mo1 Pd2 Rh1'
_cell_volume   60.79493355
_cell_formula_units_Z   1
loop_
 _symmetry_equiv_pos_site_id
 _symmetry_equiv_pos_as_xyz
  1  'x, y, z'
loop_
 _atom_site_type_symbol
 _atom_site_label
 _atom_site_symmetry_multiplicity
 _atom_site_fract_x
 _atom_site_fract_y
 _atom_site_fract_z
 _atom_site_occupancy
  Mo  Mo0  1  0.99819200  0.99819200  0.00542400  1.0
  Pd  Pd1  1  0.50065500  0.50065500  0.49803500  1.0
  Pd  Pd2  1  0.74802600  0.74802600  0.75592200  1.0
  Rh  Rh3  1  0.25312600  0.25312600  0.24062200  1.0
