# generated using pymatgen
data_MoSeS
_symmetry_space_group_name_H-M   'P 1'
_cell_length_a   3.25565000
_cell_length_b   3.25565034
_cell_length_c   36.84171100
_cell_angle_alpha   90.00000000
_cell_angle_beta   90.00000000
_cell_angle_gamma   119.99999653
_symmetry_Int_Tables_number   1
_chemical_formula_structural   MoSeS
_chemical_formula_sum   'Mo4 Se4 S4'
_cell_volume   338.17842950
_cell_formula_units_Z   4
loop_
 _symmetry_equiv_pos_site_id
 _symmetry_equiv_pos_as_xyz
  1  'x, y, z'
loop_
 _atom_site_type_symbol
 _atom_site_label
 _atom_site_symmetry_multiplicity
 _atom_site_fract_x
 _atom_site_fract_y
 _atom_site_fract_z
 _atom_site_occupancy
  Mo  Mo0  1  0.00000000  0.00000000  0.90608000  1.0
  Mo  Mo1  1  0.00000000  0.00000000  0.53034600  1.0
  Mo  Mo2  1  0.66666667  0.33333333  0.71819900  1.0
  Mo  Mo3  1  0.66666667  0.33333333  0.34244800  1.0
  Se  Se4  1  0.00000000  0.00000000  0.67215100  1.0
  Se  Se5  1  0.00000000  0.00000000  0.29637400  1.0
  Se  Se6  1  0.00000000  0.00000000  0.76427000  1.0
  Se  Se7  1  0.00000000  0.00000000  0.38852500  1.0
  S  S8  1  0.66666667  0.33333333  0.94799800  1.0
  S  S9  1  0.66666667  0.33333333  0.57222400  1.0
  S  S10  1  0.66666667  0.33333333  0.86419100  1.0
  S  S11  1  0.66666667  0.33333333  0.48844500  1.0
