# generated using pymatgen
data_MoW(SeS)2
_symmetry_space_group_name_H-M   'P 1'
_cell_length_a   3.25364600
_cell_length_b   3.25364679
_cell_length_c   36.87740200
_cell_angle_alpha   90.00000000
_cell_angle_beta   90.00000000
_cell_angle_gamma   119.99999200
_symmetry_Int_Tables_number   1
_chemical_formula_structural   MoW(SeS)2
_chemical_formula_sum   'Mo2 W2 Se4 S4'
_cell_volume   338.08950461
_cell_formula_units_Z   2
loop_
 _symmetry_equiv_pos_site_id
 _symmetry_equiv_pos_as_xyz
  1  'x, y, z'
loop_
 _atom_site_type_symbol
 _atom_site_label
 _atom_site_symmetry_multiplicity
 _atom_site_fract_x
 _atom_site_fract_y
 _atom_site_fract_z
 _atom_site_occupancy
  Mo  Mo0  1  0.00000000  0.00000000  0.90609300  1.0
  Mo  Mo1  1  0.66666667  0.33333333  0.71820400  1.0
  W  W2  1  0.00000000  0.00000000  0.53033600  1.0
  W  W3  1  0.66666667  0.33333333  0.34245900  1.0
  Se  Se4  1  0.66666667  0.33333333  0.95212000  1.0
  Se  Se5  1  0.66666667  0.33333333  0.57667500  1.0
  Se  Se6  1  0.66666667  0.33333333  0.86004400  1.0
  Se  Se7  1  0.66666667  0.33333333  0.48399500  1.0
  S  S8  1  0.00000000  0.00000000  0.67631200  1.0
  S  S9  1  0.00000000  0.00000000  0.30045000  1.0
  S  S10  1  0.00000000  0.00000000  0.76009900  1.0
  S  S11  1  0.00000000  0.00000000  0.38446400  1.0
