# generated using pymatgen
data_MoW2(SeS2)2
_symmetry_space_group_name_H-M   'P 1'
_cell_length_a   3.23496400
_cell_length_b   3.23496486
_cell_length_c   29.67356700
_cell_angle_alpha   90.00000000
_cell_angle_beta   90.00000000
_cell_angle_gamma   119.99999118
_symmetry_Int_Tables_number   1
_chemical_formula_structural   MoW2(SeS2)2
_chemical_formula_sum   'Mo1 W2 Se2 S4'
_cell_volume   268.93011937
_cell_formula_units_Z   1
loop_
 _symmetry_equiv_pos_site_id
 _symmetry_equiv_pos_as_xyz
  1  'x, y, z'
loop_
 _atom_site_type_symbol
 _atom_site_label
 _atom_site_symmetry_multiplicity
 _atom_site_fract_x
 _atom_site_fract_y
 _atom_site_fract_z
 _atom_site_occupancy
  Mo  Mo0  1  0.00000000  0.00000000  0.88436200  1.0
  W  W1  1  0.00000000  0.00000000  0.42165600  1.0
  W  W2  1  0.66666667  0.33333333  0.65304000  1.0
  Se  Se3  1  0.66666667  0.33333333  0.47946100  1.0
  Se  Se4  1  0.66666667  0.33333333  0.36388300  1.0
  S  S5  1  0.00000000  0.00000000  0.60060100  1.0
  S  S6  1  0.66666667  0.33333333  0.93657700  1.0
  S  S7  1  0.66666667  0.33333333  0.83213800  1.0
  S  S8  1  0.00000000  0.00000000  0.70544100  1.0
