# generated using pymatgen
data_MoW3S8
_symmetry_space_group_name_H-M   'P 1'
_cell_length_a   3.19106600
_cell_length_b   3.19106581
_cell_length_c   35.84507200
_cell_angle_alpha   90.00000000
_cell_angle_beta   90.00000000
_cell_angle_gamma   120.00000198
_symmetry_Int_Tables_number   1
_chemical_formula_structural   MoW3S8
_chemical_formula_sum   'Mo1 W3 S8'
_cell_volume   316.10519102
_cell_formula_units_Z   1
loop_
 _symmetry_equiv_pos_site_id
 _symmetry_equiv_pos_as_xyz
  1  'x, y, z'
loop_
 _atom_site_type_symbol
 _atom_site_label
 _atom_site_symmetry_multiplicity
 _atom_site_fract_x
 _atom_site_fract_y
 _atom_site_fract_z
 _atom_site_occupancy
  Mo  Mo0  1  0.33333333  0.66666667  0.71818900  1.0
  W  W1  1  0.66666667  0.33333333  0.90609200  1.0
  W  W2  1  0.66666667  0.33333333  0.53033600  1.0
  W  W3  1  0.33333333  0.66666667  0.34244800  1.0
  S  S4  1  0.66666667  0.33333333  0.67455200  1.0
  S  S5  1  0.66666667  0.33333333  0.29858800  1.0
  S  S6  1  0.33333333  0.66666667  0.94996900  1.0
  S  S7  1  0.33333333  0.66666667  0.57419100  1.0
  S  S8  1  0.33333333  0.66666667  0.86221100  1.0
  S  S9  1  0.33333333  0.66666667  0.48649500  1.0
  S  S10  1  0.66666667  0.33333333  0.76185900  1.0
  S  S11  1  0.66666667  0.33333333  0.38632100  1.0
