# generated using pymatgen
data_Na(Nb3S4)2
_symmetry_space_group_name_H-M   'P 1'
_cell_length_a   3.43208700
_cell_length_b   9.62759800
_cell_length_c   9.62759761
_cell_angle_alpha   120.00000133
_cell_angle_beta   90.00000000
_cell_angle_gamma   90.00000000
_symmetry_Int_Tables_number   1
_chemical_formula_structural   Na(Nb3S4)2
_chemical_formula_sum   'Na1 Nb6 S8'
_cell_volume   275.50202314
_cell_formula_units_Z   1
loop_
 _symmetry_equiv_pos_site_id
 _symmetry_equiv_pos_as_xyz
  1  'x, y, z'
loop_
 _atom_site_type_symbol
 _atom_site_label
 _atom_site_symmetry_multiplicity
 _atom_site_fract_x
 _atom_site_fract_y
 _atom_site_fract_z
 _atom_site_occupancy
  Na  Na0  1  0.50000000  0.00000000  0.00000000  1.0
  Nb  Nb1  1  0.25029900  0.51263600  0.88757000  1.0
  Nb  Nb2  1  0.25029900  0.37493400  0.48736400  1.0
  Nb  Nb3  1  0.25029900  0.11243000  0.62506600  1.0
  Nb  Nb4  1  0.74970100  0.48736400  0.11243000  1.0
  Nb  Nb5  1  0.74970100  0.62506600  0.51263600  1.0
  Nb  Nb6  1  0.74970100  0.88757000  0.37493400  1.0
  S  S7  1  0.24988100  0.66666667  0.33333333  1.0
  S  S8  1  0.75011900  0.33333333  0.66666667  1.0
  S  S9  1  0.24931400  0.65925300  0.71357100  1.0
  S  S10  1  0.24931400  0.05431800  0.34074700  1.0
  S  S11  1  0.24931400  0.28642900  0.94568200  1.0
  S  S12  1  0.75068600  0.34074700  0.28642900  1.0
  S  S13  1  0.75068600  0.94568200  0.65925300  1.0
  S  S14  1  0.75068600  0.71357100  0.05431800  1.0
