# generated using pymatgen
data_Na2CuP
_symmetry_space_group_name_H-M   'P 1'
_cell_length_a   5.24692700
_cell_length_b   5.56193109
_cell_length_c   5.56193109
_cell_angle_alpha   102.75605554
_cell_angle_beta   90.00000000
_cell_angle_gamma   90.00000000
_symmetry_Int_Tables_number   1
_chemical_formula_structural   Na2CuP
_chemical_formula_sum   'Na4 Cu2 P2'
_cell_volume   158.30801732
_cell_formula_units_Z   2
loop_
 _symmetry_equiv_pos_site_id
 _symmetry_equiv_pos_as_xyz
  1  'x, y, z'
loop_
 _atom_site_type_symbol
 _atom_site_label
 _atom_site_symmetry_multiplicity
 _atom_site_fract_x
 _atom_site_fract_y
 _atom_site_fract_z
 _atom_site_occupancy
  Na  Na0  1  0.75000000  0.68313300  0.03114500  1.0
  Na  Na1  1  0.25000000  0.31686700  0.96885500  1.0
  Na  Na2  1  0.75000000  0.03114500  0.68313300  1.0
  Na  Na3  1  0.25000000  0.96885500  0.31686700  1.0
  Cu  Cu4  1  0.50000000  0.50000000  0.50000000  1.0
  Cu  Cu5  1  1.00000000  0.50000000  0.50000000  1.0
  P  P6  1  0.25000000  0.76209900  0.76209900  1.0
  P  P7  1  0.75000000  0.23790100  0.23790100  1.0
