# generated using pymatgen
data_Na2CrCl4
_symmetry_space_group_name_H-M   'P 1'
_cell_length_a   4.03848800
_cell_length_b   7.01662120
_cell_length_c   11.62827800
_cell_angle_alpha   90.00000000
_cell_angle_beta   90.00000000
_cell_angle_gamma   93.81462561
_symmetry_Int_Tables_number   1
_chemical_formula_structural   Na2CrCl4
_chemical_formula_sum   'Na4 Cr2 Cl8'
_cell_volume   328.77515804
_cell_formula_units_Z   2
loop_
 _symmetry_equiv_pos_site_id
 _symmetry_equiv_pos_as_xyz
  1  'x, y, z'
loop_
 _atom_site_type_symbol
 _atom_site_label
 _atom_site_symmetry_multiplicity
 _atom_site_fract_x
 _atom_site_fract_y
 _atom_site_fract_z
 _atom_site_occupancy
  Na  Na0  1  0.48323900  0.09393900  0.31967400  1.0
  Na  Na1  1  0.51676100  0.40606100  0.81967400  1.0
  Na  Na2  1  0.48323900  0.59393900  0.18032600  1.0
  Na  Na3  1  0.51676100  0.90606100  0.68032600  1.0
  Cr  Cr4  1  0.00000000  0.50000000  0.50000000  1.0
  Cr  Cr5  1  0.00000000  0.00000000  0.00000000  1.0
  Cl  Cl6  1  0.43319300  0.24021700  0.04697200  1.0
  Cl  Cl7  1  0.56680700  0.25978300  0.54697200  1.0
  Cl  Cl8  1  0.99192000  0.88463300  0.19348600  1.0
  Cl  Cl9  1  0.00808000  0.61536700  0.69348600  1.0
  Cl  Cl10  1  0.00808000  0.11536700  0.80651400  1.0
  Cl  Cl11  1  0.99192000  0.38463300  0.30651400  1.0
  Cl  Cl12  1  0.56680700  0.75978300  0.95302800  1.0
  Cl  Cl13  1  0.43319300  0.74021700  0.45302800  1.0
