# generated using pymatgen
data_Na2PtSe2
_symmetry_space_group_name_H-M   'P 1'
_cell_length_a   3.75050200
_cell_length_b   5.75838279
_cell_length_c   11.45483800
_cell_angle_alpha   90.00000000
_cell_angle_beta   90.00000000
_cell_angle_gamma   109.00531375
_symmetry_Int_Tables_number   1
_chemical_formula_structural   Na2PtSe2
_chemical_formula_sum   'Na4 Pt2 Se4'
_cell_volume   233.90261598
_cell_formula_units_Z   2
loop_
 _symmetry_equiv_pos_site_id
 _symmetry_equiv_pos_as_xyz
  1  'x, y, z'
loop_
 _atom_site_type_symbol
 _atom_site_label
 _atom_site_symmetry_multiplicity
 _atom_site_fract_x
 _atom_site_fract_y
 _atom_site_fract_z
 _atom_site_occupancy
  Na  Na0  1  0.43651700  0.87303400  0.13081500  1.0
  Na  Na1  1  0.56348300  0.12696600  0.63081500  1.0
  Na  Na2  1  0.82524700  0.65049400  0.40064300  1.0
  Na  Na3  1  0.17475300  0.34950600  0.90064300  1.0
  Pt  Pt4  1  0.13597000  0.27194000  0.24884300  1.0
  Pt  Pt5  1  0.86403000  0.72806000  0.74884300  1.0
  Se  Se6  1  0.55227500  0.10455000  0.36944500  1.0
  Se  Se7  1  0.44772500  0.89545000  0.86944500  1.0
  Se  Se8  1  0.71939800  0.43879600  0.12795500  1.0
  Se  Se9  1  0.28060200  0.56120400  0.62795500  1.0
