# generated using pymatgen
data_Na2SeO4
_symmetry_space_group_name_H-M   'P 1'
_cell_length_a   6.02957858
_cell_length_b   6.02957858
_cell_length_c   7.10570982
_cell_angle_alpha   102.96683193
_cell_angle_beta   102.96683194
_cell_angle_gamma   118.10773642
_symmetry_Int_Tables_number   1
_chemical_formula_structural   Na2SeO4
_chemical_formula_sum   'Na4 Se2 O8'
_cell_volume   205.02894358
_cell_formula_units_Z   2
loop_
 _symmetry_equiv_pos_site_id
 _symmetry_equiv_pos_as_xyz
  1  'x, y, z'
loop_
 _atom_site_type_symbol
 _atom_site_label
 _atom_site_symmetry_multiplicity
 _atom_site_fract_x
 _atom_site_fract_y
 _atom_site_fract_z
 _atom_site_occupancy
  Na  Na0  1  0.18509100  0.81490900  0.00000000  1.0
  Na  Na1  1  0.43509100  0.56490900  0.50000000  1.0
  Na  Na2  1  0.81490900  0.18509100  1.00000000  1.0
  Na  Na3  1  0.06490900  0.93509100  0.50000000  1.0
  Se  Se4  1  0.75000000  0.25000000  0.50000000  1.0
  Se  Se5  1  0.50000000  0.50000000  0.00000000  1.0
  O  O6  1  0.93078400  0.23465300  0.35501400  1.0
  O  O7  1  0.76534700  0.06921600  0.64498600  1.0
  O  O8  1  0.37036100  0.17423000  0.85501400  1.0
  O  O9  1  0.31921600  0.51534700  0.14498600  1.0
  O  O10  1  0.82577000  0.62963900  0.14498600  1.0
  O  O11  1  0.42423000  0.12036100  0.35501400  1.0
  O  O12  1  0.87963900  0.57577000  0.64498600  1.0
  O  O13  1  0.48465300  0.68078400  0.85501400  1.0
