# generated using pymatgen
data_Na2UF8
_symmetry_space_group_name_H-M   'P 1'
_cell_length_a   5.54341600
_cell_length_b   5.54341600
_cell_length_c   6.61520892
_cell_angle_alpha   114.77085376
_cell_angle_beta   114.77085376
_cell_angle_gamma   90.00000000
_symmetry_Int_Tables_number   1
_chemical_formula_structural   Na2UF8
_chemical_formula_sum   'Na2 U1 F8'
_cell_volume   163.75158134
_cell_formula_units_Z   1
loop_
 _symmetry_equiv_pos_site_id
 _symmetry_equiv_pos_as_xyz
  1  'x, y, z'
loop_
 _atom_site_type_symbol
 _atom_site_label
 _atom_site_symmetry_multiplicity
 _atom_site_fract_x
 _atom_site_fract_y
 _atom_site_fract_z
 _atom_site_occupancy
  Na  Na0  1  0.75000000  0.25000000  0.50000000  1.0
  Na  Na1  1  0.25000000  0.75000000  0.50000000  1.0
  U  U2  1  0.00000000  0.00000000  0.00000000  1.0
  F  F3  1  0.10442000  0.66157700  0.76599700  1.0
  F  F4  1  0.66157600  0.10441900  0.76599500  1.0
  F  F5  1  0.10442000  0.10442000  0.76599600  1.0
  F  F6  1  0.66157600  0.66157600  0.76599600  1.0
  F  F7  1  0.89558000  0.33842300  0.23400300  1.0
  F  F8  1  0.33842400  0.89558100  0.23400500  1.0
  F  F9  1  0.89558000  0.89558000  0.23400400  1.0
  F  F10  1  0.33842400  0.33842400  0.23400400  1.0
