# generated using pymatgen
data_Na3DyCl6
_symmetry_space_group_name_H-M   'P 1'
_cell_length_a   6.85567000
_cell_length_b   7.34579800
_cell_length_c   10.34802530
_cell_angle_alpha   90.00000000
_cell_angle_beta   91.05021123
_cell_angle_gamma   90.00000000
_symmetry_Int_Tables_number   1
_chemical_formula_structural   Na3DyCl6
_chemical_formula_sum   'Na6 Dy2 Cl12'
_cell_volume   521.04281032
_cell_formula_units_Z   2
loop_
 _symmetry_equiv_pos_site_id
 _symmetry_equiv_pos_as_xyz
  1  'x, y, z'
loop_
 _atom_site_type_symbol
 _atom_site_label
 _atom_site_symmetry_multiplicity
 _atom_site_fract_x
 _atom_site_fract_y
 _atom_site_fract_z
 _atom_site_occupancy
  Na  Na0  1  0.53921000  0.09509400  0.24445600  1.0
  Na  Na1  1  0.96079000  0.59509400  0.25554400  1.0
  Na  Na2  1  0.46079000  0.90490600  0.75554400  1.0
  Na  Na3  1  0.03921000  0.40490600  0.74445600  1.0
  Na  Na4  1  0.00000000  1.00000000  0.50000000  1.0
  Na  Na5  1  0.50000000  0.50000000  1.00000000  1.0
  Dy  Dy6  1  0.00000000  0.00000000  0.00000000  1.0
  Dy  Dy7  1  0.50000000  0.50000000  0.50000000  1.0
  Cl  Cl8  1  0.35555300  0.44194000  0.26285100  1.0
  Cl  Cl9  1  0.14444700  0.94194000  0.23714900  1.0
  Cl  Cl10  1  0.85555300  0.05806000  0.76285100  1.0
  Cl  Cl11  1  0.64444700  0.55806000  0.73714900  1.0
  Cl  Cl12  1  0.68475300  0.82290200  0.07194100  1.0
  Cl  Cl13  1  0.81524700  0.32290200  0.42805900  1.0
  Cl  Cl14  1  0.31524700  0.17709800  0.92805900  1.0
  Cl  Cl15  1  0.18475300  0.67709800  0.57194100  1.0
  Cl  Cl16  1  0.16673500  0.69303500  0.92298100  1.0
  Cl  Cl17  1  0.33326500  0.19303500  0.57701900  1.0
  Cl  Cl18  1  0.83326500  0.30696500  0.07701900  1.0
  Cl  Cl19  1  0.66673500  0.80696500  0.42298100  1.0
