# generated using pymatgen
data_Na4Br2O
_symmetry_space_group_name_H-M   'P 1'
_cell_length_a   4.56260000
_cell_length_b   4.56260000
_cell_length_c   8.20524756
_cell_angle_alpha   106.14262788
_cell_angle_beta   106.14262788
_cell_angle_gamma   90.00000000
_symmetry_Int_Tables_number   1
_chemical_formula_structural   Na4Br2O
_chemical_formula_sum   'Na4 Br2 O1'
_cell_volume   157.05343017
_cell_formula_units_Z   1
loop_
 _symmetry_equiv_pos_site_id
 _symmetry_equiv_pos_as_xyz
  1  'x, y, z'
loop_
 _atom_site_type_symbol
 _atom_site_label
 _atom_site_symmetry_multiplicity
 _atom_site_fract_x
 _atom_site_fract_y
 _atom_site_fract_z
 _atom_site_occupancy
  Na  Na0  1  0.15204500  0.15204500  0.30409000  1.0
  Na  Na1  1  0.50000000  0.00000000  0.00000000  1.0
  Na  Na2  1  0.84795500  0.84795500  0.69591000  1.0
  Na  Na3  1  1.00000000  0.50000000  0.00000000  1.0
  Br  Br4  1  0.34857200  0.34857200  0.69714400  1.0
  Br  Br5  1  0.65142800  0.65142800  0.30285600  1.0
  O  O6  1  0.00000000  0.00000000  0.00000000  1.0
