# generated using pymatgen
data_Na5CoCO5
_symmetry_space_group_name_H-M   'P 1'
_cell_length_a   4.52410400
_cell_length_b   4.95631700
_cell_length_c   8.33986100
_cell_angle_alpha   90.00000000
_cell_angle_beta   90.00000000
_cell_angle_gamma   90.00000000
_symmetry_Int_Tables_number   1
_chemical_formula_structural   Na5CoCO5
_chemical_formula_sum   'Na5 Co1 C1 O5'
_cell_volume   187.00381555
_cell_formula_units_Z   1
loop_
 _symmetry_equiv_pos_site_id
 _symmetry_equiv_pos_as_xyz
  1  'x, y, z'
loop_
 _atom_site_type_symbol
 _atom_site_label
 _atom_site_symmetry_multiplicity
 _atom_site_fract_x
 _atom_site_fract_y
 _atom_site_fract_z
 _atom_site_occupancy
  Na  Na0  1  0.00000000  0.49548700  0.22361100  1.0
  Na  Na1  1  0.50000000  0.00707500  0.23777300  1.0
  Na  Na2  1  0.00000000  0.49548700  0.77638900  1.0
  Na  Na3  1  0.50000000  0.00707500  0.76222700  1.0
  Na  Na4  1  0.00000000  0.01367200  0.50000000  1.0
  Co  Co5  1  0.00000000  0.99562800  1.00000000  1.0
  C  C6  1  0.50000000  0.57386400  0.50000000  1.0
  O  O7  1  0.00000000  0.99460800  0.21232300  1.0
  O  O8  1  0.00000000  0.99460800  0.78767700  1.0
  O  O9  1  0.50000000  0.83688700  0.50000000  1.0
  O  O10  1  0.50000000  0.44530400  0.36315600  1.0
  O  O11  1  0.50000000  0.44530400  0.63684400  1.0
