# generated using pymatgen
data_NaBiO3
_symmetry_space_group_name_H-M   'P 1'
_cell_length_a   5.68224016
_cell_length_b   5.68224016
_cell_length_c   6.35110380
_cell_angle_alpha   63.42667826
_cell_angle_beta   63.42667826
_cell_angle_gamma   59.99999813
_symmetry_Int_Tables_number   1
_chemical_formula_structural   NaBiO3
_chemical_formula_sum   'Na2 Bi2 O6'
_cell_volume   152.06319690
_cell_formula_units_Z   2
loop_
 _symmetry_equiv_pos_site_id
 _symmetry_equiv_pos_as_xyz
  1  'x, y, z'
loop_
 _atom_site_type_symbol
 _atom_site_label
 _atom_site_symmetry_multiplicity
 _atom_site_fract_x
 _atom_site_fract_y
 _atom_site_fract_z
 _atom_site_occupancy
  Na  Na0  1  0.13798500  0.13798500  0.58604500  1.0
  Na  Na1  1  0.86201500  0.86201500  0.41395500  1.0
  Bi  Bi2  1  0.34265100  0.34265100  0.97204700  1.0
  Bi  Bi3  1  0.65734900  0.65734900  0.02795300  1.0
  O  O4  1  0.05760700  0.70423200  0.77624200  1.0
  O  O5  1  0.70423200  0.46191900  0.77624200  1.0
  O  O6  1  0.46191900  0.05760700  0.77624200  1.0
  O  O7  1  0.94239300  0.29576800  0.22375800  1.0
  O  O8  1  0.53808100  0.94239300  0.22375800  1.0
  O  O9  1  0.29576800  0.53808100  0.22375800  1.0
