# generated using pymatgen
data_NaHg3
_symmetry_space_group_name_H-M   'P 1'
_cell_length_a   5.50801100
_cell_length_b   6.67329400
_cell_length_c   6.67329389
_cell_angle_alpha   120.00000056
_cell_angle_beta   90.00000000
_cell_angle_gamma   90.00000000
_symmetry_Int_Tables_number   1
_chemical_formula_structural   NaHg3
_chemical_formula_sum   'Na2 Hg6'
_cell_volume   212.42515238
_cell_formula_units_Z   2
loop_
 _symmetry_equiv_pos_site_id
 _symmetry_equiv_pos_as_xyz
  1  'x, y, z'
loop_
 _atom_site_type_symbol
 _atom_site_label
 _atom_site_symmetry_multiplicity
 _atom_site_fract_x
 _atom_site_fract_y
 _atom_site_fract_z
 _atom_site_occupancy
  Na  Na0  1  0.75000000  0.33333333  0.66666667  1.0
  Na  Na1  1  0.25000000  0.66666667  0.33333333  1.0
  Hg  Hg2  1  0.25000000  0.16719200  0.33438400  1.0
  Hg  Hg3  1  0.25000000  0.66561600  0.83280800  1.0
  Hg  Hg4  1  0.25000000  0.16719200  0.83280800  1.0
  Hg  Hg5  1  0.75000000  0.83280800  0.66561600  1.0
  Hg  Hg6  1  0.75000000  0.33438400  0.16719200  1.0
  Hg  Hg7  1  0.75000000  0.83280800  0.16719200  1.0
