# generated using pymatgen
data_NaIO4
_symmetry_space_group_name_H-M   'P 1'
_cell_length_a   5.43389600
_cell_length_b   5.43389600
_cell_length_c   7.19647354
_cell_angle_alpha   112.18131347
_cell_angle_beta   112.18131347
_cell_angle_gamma   90.00000000
_symmetry_Int_Tables_number   1
_chemical_formula_structural   NaIO4
_chemical_formula_sum   'Na2 I2 O8'
_cell_volume   179.66927084
_cell_formula_units_Z   2
loop_
 _symmetry_equiv_pos_site_id
 _symmetry_equiv_pos_as_xyz
  1  'x, y, z'
loop_
 _atom_site_type_symbol
 _atom_site_label
 _atom_site_symmetry_multiplicity
 _atom_site_fract_x
 _atom_site_fract_y
 _atom_site_fract_z
 _atom_site_occupancy
  Na  Na0  1  0.25000000  0.75000000  0.50000000  1.0
  Na  Na1  1  0.50000000  0.50000000  1.00000000  1.0
  I  I2  1  0.75000000  0.25000000  0.50000000  1.0
  I  I3  1  0.00000000  0.00000000  0.00000000  1.0
  O  O4  1  0.81929200  0.40432600  0.33924100  1.0
  O  O5  1  0.68491500  0.06929200  0.83924100  1.0
  O  O6  1  0.15432600  0.76994900  0.83924100  1.0
  O  O7  1  0.51994900  0.93491500  0.33924100  1.0
  O  O8  1  0.23005100  0.31508500  0.16075900  1.0
  O  O9  1  0.59567400  0.48005100  0.66075900  1.0
  O  O10  1  0.06508500  0.18070800  0.66075900  1.0
  O  O11  1  0.93070800  0.84567400  0.16075900  1.0
