# generated using pymatgen
data_NaLiGa2(SiO3)4
_symmetry_space_group_name_H-M   'P 1'
_cell_length_a   5.34193779
_cell_length_b   6.52931410
_cell_length_c   6.52931410
_cell_angle_alpha   84.02092799
_cell_angle_beta   75.82608874
_cell_angle_gamma   75.82608874
_symmetry_Int_Tables_number   1
_chemical_formula_structural   NaLiGa2(SiO3)4
_chemical_formula_sum   'Na1 Li1 Ga2 Si4 O12'
_cell_volume   213.84537545
_cell_formula_units_Z   1
loop_
 _symmetry_equiv_pos_site_id
 _symmetry_equiv_pos_as_xyz
  1  'x, y, z'
loop_
 _atom_site_type_symbol
 _atom_site_label
 _atom_site_symmetry_multiplicity
 _atom_site_fract_x
 _atom_site_fract_y
 _atom_site_fract_z
 _atom_site_occupancy
  Na  Na0  1  0.00000000  0.70598600  0.29401400  1.0
  Li  Li1  1  0.50000000  0.27729000  0.72271000  1.0
  Ga  Ga2  1  0.50000000  0.90196600  0.09803400  1.0
  Ga  Ga3  1  0.00000000  0.10114900  0.89885100  1.0
  Si  Si4  1  0.50478900  0.38348400  0.20204900  1.0
  Si  Si5  1  0.49521100  0.79795100  0.61651600  1.0
  Si  Si6  1  0.99760900  0.61527300  0.79653200  1.0
  Si  Si7  1  0.00239100  0.20346800  0.38472700  1.0
  O  O8  1  0.61012500  0.19707600  0.02726100  1.0
  O  O9  1  0.38987500  0.97273900  0.80292400  1.0
  O  O10  1  0.88845400  0.80807100  0.96374000  1.0
  O  O11  1  0.11154600  0.03626000  0.19192900  1.0
  O  O12  1  0.71734900  0.35736200  0.35282100  1.0
  O  O13  1  0.28265100  0.64717900  0.64263800  1.0
  O  O14  1  0.77860000  0.64151200  0.65088100  1.0
  O  O15  1  0.22140000  0.34911900  0.35848800  1.0
  O  O16  1  0.44546000  0.62026600  0.09959100  1.0
  O  O17  1  0.55454000  0.90040900  0.37973400  1.0
  O  O18  1  0.07306600  0.37668900  0.89324800  1.0
  O  O19  1  0.92693400  0.10675200  0.62331100  1.0
