# generated using pymatgen
data_NaLi(AsS2)2
_symmetry_space_group_name_H-M   'P 1'
_cell_length_a   5.53769000
_cell_length_b   5.67540180
_cell_length_c   6.72991913
_cell_angle_alpha   67.05630593
_cell_angle_beta   68.82545767
_cell_angle_gamma   89.85251529
_symmetry_Int_Tables_number   1
_chemical_formula_structural   NaLi(AsS2)2
_chemical_formula_sum   'Na1 Li1 As2 S4'
_cell_volume   179.25952496
_cell_formula_units_Z   1
loop_
 _symmetry_equiv_pos_site_id
 _symmetry_equiv_pos_as_xyz
  1  'x, y, z'
loop_
 _atom_site_type_symbol
 _atom_site_label
 _atom_site_symmetry_multiplicity
 _atom_site_fract_x
 _atom_site_fract_y
 _atom_site_fract_z
 _atom_site_occupancy
  Na  Na0  1  0.52334300  0.78275500  0.95525500  1.0
  Li  Li1  1  0.02305000  0.26032100  0.95863100  1.0
  As  As2  1  0.84649800  0.51946400  0.38882700  1.0
  As  As3  1  0.34884600  0.09556500  0.38510500  1.0
  S  S4  1  0.49405300  0.26190200  0.00101700  1.0
  S  S5  1  0.00223100  0.73174400  0.00536500  1.0
  S  S6  1  0.74724900  0.09090400  0.44270300  1.0
  S  S7  1  0.22492900  0.44818500  0.48141600  1.0
