# generated using pymatgen
data_NaLiLa2Ti4O12
_symmetry_space_group_name_H-M   'P 1'
_cell_length_a   5.48987500
_cell_length_b   5.49325272
_cell_length_c   8.00632453
_cell_angle_alpha   89.89634125
_cell_angle_beta   90.21876192
_cell_angle_gamma   89.92491290
_symmetry_Int_Tables_number   1
_chemical_formula_structural   NaLiLa2Ti4O12
_chemical_formula_sum   'Na1 Li1 La2 Ti4 O12'
_cell_volume   241.44653217
_cell_formula_units_Z   1
loop_
 _symmetry_equiv_pos_site_id
 _symmetry_equiv_pos_as_xyz
  1  'x, y, z'
loop_
 _atom_site_type_symbol
 _atom_site_label
 _atom_site_symmetry_multiplicity
 _atom_site_fract_x
 _atom_site_fract_y
 _atom_site_fract_z
 _atom_site_occupancy
  Na  Na0  1  0.48925700  0.98938300  0.18775800  1.0
  Li  Li1  1  0.51537300  0.99614800  0.61655200  1.0
  La  La2  1  0.99952100  0.49362100  0.22657700  1.0
  La  La3  1  0.00281800  0.49829800  0.73476900  1.0
  Ti  Ti4  1  0.99654400  0.99721800  0.97611900  1.0
  Ti  Ti5  1  0.50555100  0.49684900  0.97872000  1.0
  Ti  Ti6  1  0.49839200  0.49924800  0.48192600  1.0
  Ti  Ti7  1  0.00619900  0.99915800  0.48035500  1.0
  O  O8  1  0.74750300  0.75821100  0.48069600  1.0
  O  O9  1  0.93968500  0.00114800  0.75198500  1.0
  O  O10  1  0.74468200  0.25103300  0.03320100  1.0
  O  O11  1  0.21868500  0.27715400  0.98006700  1.0
  O  O12  1  0.77408800  0.27309800  0.48147200  1.0
  O  O13  1  0.44711200  0.50021600  0.25502200  1.0
  O  O14  1  0.55287200  0.49992000  0.75302600  1.0
  O  O15  1  0.23949900  0.73774100  0.53200200  1.0
  O  O16  1  0.76534500  0.73026200  0.02925600  1.0
  O  O17  1  0.24340900  0.75026500  0.98059600  1.0
  O  O18  1  0.05404100  0.00389100  0.25483700  1.0
  O  O19  1  0.25942300  0.24713900  0.53506500  1.0
