# generated using pymatgen
data_NaNd2RuO6
_symmetry_space_group_name_H-M   'P 1'
_cell_length_a   5.55287100
_cell_length_b   5.98083900
_cell_length_c   8.02015965
_cell_angle_alpha   90.00000000
_cell_angle_beta   90.98105075
_cell_angle_gamma   90.00000000
_symmetry_Int_Tables_number   1
_chemical_formula_structural   NaNd2RuO6
_chemical_formula_sum   'Na2 Nd4 Ru2 O12'
_cell_volume   266.31709383
_cell_formula_units_Z   2
loop_
 _symmetry_equiv_pos_site_id
 _symmetry_equiv_pos_as_xyz
  1  'x, y, z'
loop_
 _atom_site_type_symbol
 _atom_site_label
 _atom_site_symmetry_multiplicity
 _atom_site_fract_x
 _atom_site_fract_y
 _atom_site_fract_z
 _atom_site_occupancy
  Na  Na0  1  0.00000000  0.00000000  0.00000000  1.0
  Na  Na1  1  0.50000000  0.50000000  0.50000000  1.0
  Nd  Nd2  1  0.97820500  0.57256600  0.75412800  1.0
  Nd  Nd3  1  0.52179500  0.07256600  0.74587200  1.0
  Nd  Nd4  1  0.02179500  0.42743400  0.24587200  1.0
  Nd  Nd5  1  0.47820500  0.92743400  0.25412800  1.0
  Ru  Ru6  1  0.50000000  0.50000000  0.00000000  1.0
  Ru  Ru7  1  0.00000000  1.00000000  0.50000000  1.0
  O  O8  1  0.83587500  0.28063000  0.57173900  1.0
  O  O9  1  0.66412500  0.78063000  0.92826100  1.0
  O  O10  1  0.16412500  0.71937000  0.42826100  1.0
  O  O11  1  0.33587500  0.21937000  0.07173900  1.0
  O  O12  1  0.12318600  0.94709200  0.72998400  1.0
  O  O13  1  0.37681400  0.44709200  0.77001600  1.0
  O  O14  1  0.87681400  0.05290800  0.27001600  1.0
  O  O15  1  0.62318600  0.55290800  0.22998400  1.0
  O  O16  1  0.20772000  0.67315300  0.05248200  1.0
  O  O17  1  0.29228000  0.17315300  0.44751800  1.0
  O  O18  1  0.79228000  0.32684700  0.94751800  1.0
  O  O19  1  0.70772000  0.82684700  0.55248200  1.0
