# generated using pymatgen
data_NaNdO2
_symmetry_space_group_name_H-M   'P 1'
_cell_length_a   4.76735200
_cell_length_b   4.76735200
_cell_length_c   6.49715700
_cell_angle_alpha   111.52331791
_cell_angle_beta   111.52331791
_cell_angle_gamma   90.00000000
_symmetry_Int_Tables_number   1
_chemical_formula_structural   NaNdO2
_chemical_formula_sum   'Na2 Nd2 O4'
_cell_volume   126.23406831
_cell_formula_units_Z   2
loop_
 _symmetry_equiv_pos_site_id
 _symmetry_equiv_pos_as_xyz
  1  'x, y, z'
loop_
 _atom_site_type_symbol
 _atom_site_label
 _atom_site_symmetry_multiplicity
 _atom_site_fract_x
 _atom_site_fract_y
 _atom_site_fract_z
 _atom_site_occupancy
  Na  Na0  1  0.75000000  0.25000000  0.50000000  1.0
  Na  Na1  1  0.00000000  0.00000000  0.00000000  1.0
  Nd  Nd2  1  0.50000000  0.50000000  0.00000000  1.0
  Nd  Nd3  1  0.25000000  0.75000000  0.50000000  1.0
  O  O4  1  0.28216900  0.28216900  0.56433800  1.0
  O  O5  1  0.03216900  0.53216900  0.06433800  1.0
  O  O6  1  0.71783100  0.71783100  0.43566200  1.0
  O  O7  1  0.46783100  0.96783100  0.93566200  1.0
