# generated using pymatgen
data_NaNiO2
_symmetry_space_group_name_H-M   'P 1'
_cell_length_a   2.85550452
_cell_length_b   3.04885380
_cell_length_c   10.65425301
_cell_angle_alpha   90.00277741
_cell_angle_beta   90.00392172
_cell_angle_gamma   62.21652872
_symmetry_Int_Tables_number   1
_chemical_formula_structural   NaNiO2
_chemical_formula_sum   'Na2 Ni2 O4'
_cell_volume   82.06275324
_cell_formula_units_Z   2
loop_
 _symmetry_equiv_pos_site_id
 _symmetry_equiv_pos_as_xyz
  1  'x, y, z'
loop_
 _atom_site_type_symbol
 _atom_site_label
 _atom_site_symmetry_multiplicity
 _atom_site_fract_x
 _atom_site_fract_y
 _atom_site_fract_z
 _atom_site_occupancy
  Na  Na0  1  0.69185200  0.63279650  0.24999800  1.0
  Na  Na2  1  0.30815000  0.36719550  0.75000100  1.0
  Ni  Ni4  1  0.99999500  0.00000950  0.49999550  1.0
  Ni  Ni5  1  0.00000100  0.99999150  0.99999400  1.0
  O  O8  1  0.36209800  0.27803800  0.40197150  1.0
  O  O10  1  0.63790800  0.72195650  0.59802850  1.0
  O  O12  1  0.63785500  0.72193300  0.90197900  1.0
  O  O14  1  0.36214000  0.27807900  0.09803250  1.0
