# generated using pymatgen
data_NaNiO2
_symmetry_space_group_name_H-M   'P 1'
_cell_length_a   2.85848773
_cell_length_b   3.05116551
_cell_length_c   10.66552202
_cell_angle_alpha   90.03271616
_cell_angle_beta   90.01984135
_cell_angle_gamma   117.84583320
_symmetry_Int_Tables_number   1
_chemical_formula_structural   NaNiO2
_chemical_formula_sum   'Na2 Ni2 O4'
_cell_volume   82.25045123
_cell_formula_units_Z   2
loop_
 _symmetry_equiv_pos_site_id
 _symmetry_equiv_pos_as_xyz
  1  'x, y, z'
loop_
 _atom_site_type_symbol
 _atom_site_label
 _atom_site_symmetry_multiplicity
 _atom_site_fract_x
 _atom_site_fract_y
 _atom_site_fract_z
 _atom_site_occupancy
  Na  Na0  1  0.31380400  0.62906850  0.75008450  1.0
  Na  Na2  1  0.68652200  0.37136450  0.24997300  1.0
  Ni  Ni4  1  0.99989200  0.00000850  0.49994750  1.0
  Ni  Ni5  1  0.99962200  0.99937950  0.00006800  1.0
  O  O8  1  0.63825400  0.27689750  0.59802750  1.0
  O  O10  1  0.36167200  0.72295950  0.40175650  1.0
  O  O12  1  0.36182000  0.72282750  0.09822900  1.0
  O  O14  1  0.63841400  0.27749350  0.90191400  1.0
