# generated using pymatgen
data_NaNiO2
_symmetry_space_group_name_H-M   'P 1'
_cell_length_a   2.96361558
_cell_length_b   2.97082677
_cell_length_c   10.69722343
_cell_angle_alpha   88.85957426
_cell_angle_beta   88.84531072
_cell_angle_gamma   118.36172416
_symmetry_Int_Tables_number   1
_chemical_formula_structural   NaNiO2
_chemical_formula_sum   'Na2 Ni2 O4'
_cell_volume   82.81407134
_cell_formula_units_Z   2
loop_
 _symmetry_equiv_pos_site_id
 _symmetry_equiv_pos_as_xyz
  1  'x, y, z'
loop_
 _atom_site_type_symbol
 _atom_site_label
 _atom_site_symmetry_multiplicity
 _atom_site_fract_x
 _atom_site_fract_y
 _atom_site_fract_z
 _atom_site_occupancy
  Na  Na0  1  0.33641100  0.66220700  0.25003000  1.0
  Na  Na1  1  0.66349300  0.33791300  0.74995400  1.0
  Ni  Ni2  1  0.00049300  0.00025200  0.49999900  1.0
  Ni  Ni3  1  0.99955800  0.99964800  0.00001400  1.0
  O  O4  1  0.65526100  0.29854000  0.40223800  1.0
  O  O5  1  0.34589500  0.70198700  0.59773700  1.0
  O  O6  1  0.29928900  0.65483300  0.90229100  1.0
  O  O7  1  0.69960000  0.34462000  0.09773700  1.0
