# generated using pymatgen
data_NaPPdS4
_symmetry_space_group_name_H-M   'P 1'
_cell_length_a   7.45163000
_cell_length_b   8.15962070
_cell_length_c   7.45163000
_cell_angle_alpha   62.83102827
_cell_angle_beta   90.00000000
_cell_angle_gamma   117.16897172
_symmetry_Int_Tables_number   1
_chemical_formula_structural   NaPPdS4
_chemical_formula_sum   'Na2 P2 Pd2 S8'
_cell_volume   345.94578186
_cell_formula_units_Z   2
loop_
 _symmetry_equiv_pos_site_id
 _symmetry_equiv_pos_as_xyz
  1  'x, y, z'
loop_
 _atom_site_type_symbol
 _atom_site_label
 _atom_site_symmetry_multiplicity
 _atom_site_fract_x
 _atom_site_fract_y
 _atom_site_fract_z
 _atom_site_occupancy
  Na  Na0  1  0.25000000  0.50000000  0.75000000  1.0
  Na  Na1  1  0.75000000  0.50000000  0.25000000  1.0
  P  P2  1  0.25000000  0.50000000  0.25000000  1.0
  P  P3  1  0.75000000  0.50000000  0.75000000  1.0
  Pd  Pd4  1  0.50000000  0.00000000  1.00000000  1.0
  Pd  Pd5  1  0.00000000  1.00000000  0.50000000  1.0
  S  S6  1  0.71014000  0.71654100  0.49359900  1.0
  S  S7  1  0.99359900  0.28345900  0.21014000  1.0
  S  S8  1  0.50640100  0.71654100  0.99359900  1.0
  S  S9  1  0.21014000  0.71654100  0.28986000  1.0
  S  S10  1  0.28986000  0.28345900  0.50640100  1.0
  S  S11  1  0.49359900  0.28345900  0.00640100  1.0
  S  S12  1  0.78986000  0.28345900  0.71014000  1.0
  S  S13  1  0.00640100  0.71654100  0.78986000  1.0
