# generated using pymatgen
data_NaSr3
_symmetry_space_group_name_H-M   'P 1'
_cell_length_a   6.80082700
_cell_length_b   8.32647400
_cell_length_c   8.32647486
_cell_angle_alpha   60.00000341
_cell_angle_beta   90.00000000
_cell_angle_gamma   90.00000000
_symmetry_Int_Tables_number   1
_chemical_formula_structural   NaSr3
_chemical_formula_sum   'Na2 Sr6'
_cell_volume   408.33318803
_cell_formula_units_Z   2
loop_
 _symmetry_equiv_pos_site_id
 _symmetry_equiv_pos_as_xyz
  1  'x, y, z'
loop_
 _atom_site_type_symbol
 _atom_site_label
 _atom_site_symmetry_multiplicity
 _atom_site_fract_x
 _atom_site_fract_y
 _atom_site_fract_z
 _atom_site_occupancy
  Na  Na0  1  0.25000000  0.33333333  0.33333333  1.0
  Na  Na1  1  0.75000000  0.66666667  0.66666667  1.0
  Sr  Sr2  1  0.75000000  0.16726500  0.66547000  1.0
  Sr  Sr3  1  0.25000000  0.33452900  0.83273600  1.0
  Sr  Sr4  1  0.25000000  0.83273500  0.83273600  1.0
  Sr  Sr5  1  0.25000000  0.83273500  0.33453000  1.0
  Sr  Sr6  1  0.75000000  0.66547100  0.16726400  1.0
  Sr  Sr7  1  0.75000000  0.16726500  0.16726400  1.0
