# generated using pymatgen
data_NaTbO2
_symmetry_space_group_name_H-M   'P 1'
_cell_length_a   4.64321000
_cell_length_b   4.64321000
_cell_length_c   6.19781153
_cell_angle_alpha   111.99864337
_cell_angle_beta   111.99864336
_cell_angle_gamma   90.00000001
_symmetry_Int_Tables_number   1
_chemical_formula_structural   NaTbO2
_chemical_formula_sum   'Na2 Tb2 O4'
_cell_volume   113.33185370
_cell_formula_units_Z   2
loop_
 _symmetry_equiv_pos_site_id
 _symmetry_equiv_pos_as_xyz
  1  'x, y, z'
loop_
 _atom_site_type_symbol
 _atom_site_label
 _atom_site_symmetry_multiplicity
 _atom_site_fract_x
 _atom_site_fract_y
 _atom_site_fract_z
 _atom_site_occupancy
  Na  Na0  1  0.00000000  0.00000000  0.00000000  1.0
  Na  Na1  1  0.75000000  0.25000000  0.50000000  1.0
  Tb  Tb2  1  0.25000000  0.75000000  0.50000000  1.0
  Tb  Tb3  1  0.50000000  0.50000000  0.00000000  1.0
  O  O4  1  0.27990100  0.27990100  0.55980200  1.0
  O  O5  1  0.02990100  0.52990100  0.05980200  1.0
  O  O6  1  0.72009900  0.72009900  0.44019800  1.0
  O  O7  1  0.47009900  0.97009900  0.94019800  1.0
