# generated using pymatgen
data_NaTiVS4
_symmetry_space_group_name_H-M   'P 1'
_cell_length_a   3.42973200
_cell_length_b   5.90623420
_cell_length_c   7.29525815
_cell_angle_alpha   97.79708943
_cell_angle_beta   103.59550397
_cell_angle_gamma   90.00000000
_symmetry_Int_Tables_number   1
_chemical_formula_structural   NaTiVS4
_chemical_formula_sum   'Na1 Ti1 V1 S4'
_cell_volume   142.23172799
_cell_formula_units_Z   1
loop_
 _symmetry_equiv_pos_site_id
 _symmetry_equiv_pos_as_xyz
  1  'x, y, z'
loop_
 _atom_site_type_symbol
 _atom_site_label
 _atom_site_symmetry_multiplicity
 _atom_site_fract_x
 _atom_site_fract_y
 _atom_site_fract_z
 _atom_site_occupancy
  Na  Na0  1  0.75666300  0.91356800  0.51332600  1.0
  Ti  Ti1  1  0.50687000  0.49402500  0.01374000  1.0
  V  V2  1  0.00701100  0.01009700  0.01402200  1.0
  S  S3  1  0.10712300  0.70516600  0.21424600  1.0
  S  S4  1  0.60851500  0.20071400  0.21703000  1.0
  S  S5  1  0.40784200  0.80653600  0.81568400  1.0
  S  S6  1  0.90497600  0.30289400  0.80995200  1.0
