# generated using pymatgen
data_Nb3Au2
_symmetry_space_group_name_H-M   'P 1'
_cell_length_a   3.42728800
_cell_length_b   3.42728800
_cell_length_c   8.08258623
_cell_angle_alpha   102.24056761
_cell_angle_beta   102.24056762
_cell_angle_gamma   90.00000000
_symmetry_Int_Tables_number   1
_chemical_formula_structural   Nb3Au2
_chemical_formula_sum   'Nb3 Au2'
_cell_volume   90.57233615
_cell_formula_units_Z   1
loop_
 _symmetry_equiv_pos_site_id
 _symmetry_equiv_pos_as_xyz
  1  'x, y, z'
loop_
 _atom_site_type_symbol
 _atom_site_label
 _atom_site_symmetry_multiplicity
 _atom_site_fract_x
 _atom_site_fract_y
 _atom_site_fract_z
 _atom_site_occupancy
  Nb  Nb0  1  0.00000000  0.00000000  0.00000000  1.0
  Nb  Nb1  1  0.40088700  0.40088700  0.80177400  1.0
  Nb  Nb2  1  0.59911300  0.59911300  0.19822600  1.0
  Au  Au3  1  0.19916800  0.19916800  0.39833600  1.0
  Au  Au4  1  0.80083200  0.80083200  0.60166400  1.0
