# generated using pymatgen
data_Nb3MoSe8
_symmetry_space_group_name_H-M   'P 1'
_cell_length_a   3.44652900
_cell_length_b   5.97467300
_cell_length_c   13.62738355
_cell_angle_alpha   99.07941869
_cell_angle_beta   90.00000000
_cell_angle_gamma   90.00000000
_symmetry_Int_Tables_number   1
_chemical_formula_structural   Nb3MoSe8
_chemical_formula_sum   'Nb3 Mo1 Se8'
_cell_volume   277.09756670
_cell_formula_units_Z   1
loop_
 _symmetry_equiv_pos_site_id
 _symmetry_equiv_pos_as_xyz
  1  'x, y, z'
loop_
 _atom_site_type_symbol
 _atom_site_label
 _atom_site_symmetry_multiplicity
 _atom_site_fract_x
 _atom_site_fract_y
 _atom_site_fract_z
 _atom_site_occupancy
  Nb  Nb0  1  1.00000000  0.33266600  0.50111700  1.0
  Nb  Nb1  1  0.50000000  0.32789400  0.00099400  1.0
  Nb  Nb2  1  0.50000000  0.83347300  0.50158200  1.0
  Mo  Mo3  1  0.00000000  0.83917800  0.00131800  1.0
  Se  Se4  1  0.50000000  0.71556500  0.12341900  1.0
  Se  Se5  1  0.50000000  0.21333300  0.62821400  1.0
  Se  Se6  1  1.00000000  0.20789500  0.12682500  1.0
  Se  Se7  1  0.00000000  0.71239000  0.62784500  1.0
  Se  Se8  1  0.00000000  0.11699500  0.87498000  1.0
  Se  Se9  1  0.50000000  0.12122800  0.37417800  1.0
  Se  Se10  1  0.50000000  0.62886000  0.87897400  1.0
  Se  Se11  1  1.00000000  0.62192200  0.37455300  1.0
