# generated using pymatgen
data_Nb5GaSn2
_symmetry_space_group_name_H-M   'P 1'
_cell_length_a   5.20320800
_cell_length_b   8.01614174
_cell_length_c   8.01614174
_cell_angle_alpha   83.95382706
_cell_angle_beta   71.06194887
_cell_angle_gamma   71.06194887
_symmetry_Int_Tables_number   1
_chemical_formula_structural   Nb5GaSn2
_chemical_formula_sum   'Nb10 Ga2 Sn4'
_cell_volume   299.13339069
_cell_formula_units_Z   2
loop_
 _symmetry_equiv_pos_site_id
 _symmetry_equiv_pos_as_xyz
  1  'x, y, z'
loop_
 _atom_site_type_symbol
 _atom_site_label
 _atom_site_symmetry_multiplicity
 _atom_site_fract_x
 _atom_site_fract_y
 _atom_site_fract_z
 _atom_site_occupancy
  Nb  Nb0  1  0.25000000  0.50000000  0.50000000  1.0
  Nb  Nb1  1  0.75000000  0.50000000  0.50000000  1.0
  Nb  Nb2  1  0.21757600  0.71160300  0.85324400  1.0
  Nb  Nb3  1  0.07082100  0.14675600  0.71160200  1.0
  Nb  Nb4  1  0.92917900  0.85324400  0.28839800  1.0
  Nb  Nb5  1  0.78242400  0.28839700  0.14675600  1.0
  Nb  Nb6  1  0.42918000  0.28839700  0.85324400  1.0
  Nb  Nb7  1  0.57082000  0.71160300  0.14675600  1.0
  Nb  Nb8  1  0.71757700  0.85324400  0.71160200  1.0
  Nb  Nb9  1  0.28242300  0.14675600  0.28839800  1.0
  Ga  Ga10  1  0.75000000  0.00000000  0.00000000  1.0
  Ga  Ga11  1  0.25000000  0.00000000  1.00000000  1.0
  Sn  Sn12  1  0.66874900  0.16250100  0.50000000  1.0
  Sn  Sn13  1  0.16875000  0.50000000  0.16250000  1.0
  Sn  Sn14  1  0.83125000  0.50000000  0.83750000  1.0
  Sn  Sn15  1  0.33125100  0.83749900  0.50000000  1.0
