# generated using pymatgen
data_Nb5PbSe8
_symmetry_space_group_name_H-M   'P 1'
_cell_length_a   3.50637600
_cell_length_b   9.42131625
_cell_length_c   9.43625348
_cell_angle_alpha   102.99597136
_cell_angle_beta   90.00000000
_cell_angle_gamma   100.72453527
_symmetry_Int_Tables_number   1
_chemical_formula_structural   Nb5PbSe8
_chemical_formula_sum   'Nb5 Pb1 Se8'
_cell_volume   298.14847012
_cell_formula_units_Z   1
loop_
 _symmetry_equiv_pos_site_id
 _symmetry_equiv_pos_as_xyz
  1  'x, y, z'
loop_
 _atom_site_type_symbol
 _atom_site_label
 _atom_site_symmetry_multiplicity
 _atom_site_fract_x
 _atom_site_fract_y
 _atom_site_fract_z
 _atom_site_occupancy
  Nb  Nb0  1  0.00000000  0.00000000  0.00000000  1.0
  Nb  Nb1  1  0.64115200  0.28230400  0.99658500  1.0
  Nb  Nb2  1  0.35884800  0.71769600  0.00341500  1.0
  Nb  Nb3  1  0.71085600  0.42171200  0.36775300  1.0
  Nb  Nb4  1  0.28914400  0.57828800  0.63224700  1.0
  Pb  Pb5  1  0.50000000  0.00000000  0.50000000  1.0
  Se  Se6  1  0.43012700  0.86025400  0.80142900  1.0
  Se  Se7  1  0.56987300  0.13974600  0.19857100  1.0
  Se  Se8  1  0.91528900  0.83057800  0.19263400  1.0
  Se  Se9  1  0.08471100  0.16942200  0.80736600  1.0
  Se  Se10  1  0.85002700  0.70005400  0.49137700  1.0
  Se  Se11  1  0.14997300  0.29994600  0.50862300  1.0
  Se  Se12  1  0.76057200  0.52114400  0.83928100  1.0
  Se  Se13  1  0.23942800  0.47885600  0.16071900  1.0
