# generated using pymatgen
data_Nb6CdSe8
_symmetry_space_group_name_H-M   'P 1'
_cell_length_a   3.46962300
_cell_length_b   10.22201518
_cell_length_c   10.22374988
_cell_angle_alpha   60.01088181
_cell_angle_beta   89.99856833
_cell_angle_gamma   89.99910673
_symmetry_Int_Tables_number   1
_chemical_formula_structural   Nb6CdSe8
_chemical_formula_sum   'Nb6 Cd1 Se8'
_cell_volume   314.05612538
_cell_formula_units_Z   1
loop_
 _symmetry_equiv_pos_site_id
 _symmetry_equiv_pos_as_xyz
  1  'x, y, z'
loop_
 _atom_site_type_symbol
 _atom_site_label
 _atom_site_symmetry_multiplicity
 _atom_site_fract_x
 _atom_site_fract_y
 _atom_site_fract_z
 _atom_site_occupancy
  Nb  Nb0  1  0.25019000  0.62011400  0.89288100  1.0
  Nb  Nb1  1  0.25015800  0.89290900  0.48699500  1.0
  Nb  Nb2  1  0.25018200  0.48697000  0.62013900  1.0
  Nb  Nb3  1  0.74981000  0.37988600  0.10711900  1.0
  Nb  Nb4  1  0.74984200  0.10709100  0.51300500  1.0
  Nb  Nb5  1  0.74981800  0.51303000  0.37986100  1.0
  Cd  Cd6  1  0.50000000  0.00000000  0.00000000  1.0
  Se  Se7  1  0.24973800  0.93759800  0.71956900  1.0
  Se  Se8  1  0.24972600  0.71944100  0.34291900  1.0
  Se  Se9  1  0.24975900  0.34279600  0.93769400  1.0
  Se  Se10  1  0.75026200  0.06240200  0.28043100  1.0
  Se  Se11  1  0.75027400  0.28055900  0.65708100  1.0
  Se  Se12  1  0.75024100  0.65720400  0.06230600  1.0
  Se  Se13  1  0.24958600  0.33333333  0.33333333  1.0
  Se  Se14  1  0.75041400  0.66666667  0.66660833  1.0
