# generated using pymatgen
data_Nb6InSe8
_symmetry_space_group_name_H-M   'P 1'
_cell_length_a   3.50116200
_cell_length_b   10.19953200
_cell_length_c   10.19953216
_cell_angle_alpha   119.99999949
_cell_angle_beta   90.00000000
_cell_angle_gamma   90.00000000
_symmetry_Int_Tables_number   1
_chemical_formula_structural   Nb6InSe8
_chemical_formula_sum   'Nb6 In1 Se8'
_cell_volume   315.43024752
_cell_formula_units_Z   1
loop_
 _symmetry_equiv_pos_site_id
 _symmetry_equiv_pos_as_xyz
  1  'x, y, z'
loop_
 _atom_site_type_symbol
 _atom_site_label
 _atom_site_symmetry_multiplicity
 _atom_site_fract_x
 _atom_site_fract_y
 _atom_site_fract_z
 _atom_site_occupancy
  Nb  Nb0  1  0.50000000  0.51297600  0.61951100  1.0
  Nb  Nb1  1  0.50000000  0.10653500  0.48702400  1.0
  Nb  Nb2  1  0.50000000  0.38048900  0.89346500  1.0
  Nb  Nb3  1  1.00000000  0.48855800  0.38196200  1.0
  Nb  Nb4  1  1.00000000  0.89340400  0.51144200  1.0
  Nb  Nb5  1  1.00000000  0.61803800  0.10659600  1.0
  In  In6  1  0.50000000  0.00000000  0.00000000  1.0
  Se  Se7  1  0.50000000  0.66666667  0.33333333  1.0
  Se  Se8  1  1.00000000  0.33333333  0.66666667  1.0
  Se  Se9  1  0.50000000  0.65911100  0.94043700  1.0
  Se  Se10  1  0.50000000  0.28132600  0.34088900  1.0
  Se  Se11  1  0.50000000  0.05956300  0.71867400  1.0
  Se  Se12  1  1.00000000  0.33930800  0.05995900  1.0
  Se  Se13  1  1.00000000  0.72065100  0.66069200  1.0
  Se  Se14  1  1.00000000  0.94004100  0.27934900  1.0
