# generated using pymatgen
data_NbAlCu
_symmetry_space_group_name_H-M   'P 1'
_cell_length_a   4.98944976
_cell_length_b   4.98937900
_cell_length_c   8.10199200
_cell_angle_alpha   90.00000000
_cell_angle_beta   90.00000000
_cell_angle_gamma   118.81546565
_symmetry_Int_Tables_number   1
_chemical_formula_structural   NbAlCu
_chemical_formula_sum   'Nb4 Al4 Cu4'
_cell_volume   176.71874330
_cell_formula_units_Z   4
loop_
 _symmetry_equiv_pos_site_id
 _symmetry_equiv_pos_as_xyz
  1  'x, y, z'
loop_
 _atom_site_type_symbol
 _atom_site_label
 _atom_site_symmetry_multiplicity
 _atom_site_fract_x
 _atom_site_fract_y
 _atom_site_fract_z
 _atom_site_occupancy
  Nb  Nb0  1  0.33496200  0.66504400  0.56233900  1.0
  Nb  Nb1  1  0.66311100  0.33689200  0.43324000  1.0
  Nb  Nb2  1  0.66311100  0.33689200  0.06676000  1.0
  Nb  Nb3  1  0.33496200  0.66504400  0.93766100  1.0
  Al  Al4  1  0.99483900  0.00515300  0.48648700  1.0
  Al  Al5  1  0.99483900  0.00515300  0.01351300  1.0
  Al  Al6  1  0.34780700  0.16690300  0.75000000  1.0
  Al  Al7  1  0.83308400  0.65219400  0.75000000  1.0
  Cu  Cu8  1  0.83579900  0.16420600  0.75000000  1.0
  Cu  Cu9  1  0.65200000  0.82682200  0.25000000  1.0
  Cu  Cu10  1  0.17319100  0.34799600  0.25000000  1.0
  Cu  Cu11  1  0.17229600  0.82770200  0.25000000  1.0
