# generated using pymatgen
data_NbAlBr8
_symmetry_space_group_name_H-M   'P 1'
_cell_length_a   9.03975600
_cell_length_b   10.37528305
_cell_length_c   9.18173100
_cell_angle_alpha   90.00000000
_cell_angle_beta   90.00000000
_cell_angle_gamma   115.82596183
_symmetry_Int_Tables_number   1
_chemical_formula_structural   NbAlBr8
_chemical_formula_sum   'Nb2 Al2 Br16'
_cell_volume   775.14392258
_cell_formula_units_Z   2
loop_
 _symmetry_equiv_pos_site_id
 _symmetry_equiv_pos_as_xyz
  1  'x, y, z'
loop_
 _atom_site_type_symbol
 _atom_site_label
 _atom_site_symmetry_multiplicity
 _atom_site_fract_x
 _atom_site_fract_y
 _atom_site_fract_z
 _atom_site_occupancy
  Nb  Nb0  1  0.38979800  0.77959600  0.75000000  1.0
  Nb  Nb1  1  0.61020200  0.22040400  0.25000000  1.0
  Al  Al2  1  0.18698600  0.37397200  0.75000000  1.0
  Al  Al3  1  0.81301400  0.62602800  0.25000000  1.0
  Br  Br4  1  0.47004800  0.54185900  0.75000000  1.0
  Br  Br5  1  0.92818900  0.45814100  0.25000000  1.0
  Br  Br6  1  0.52995200  0.45814100  0.25000000  1.0
  Br  Br7  1  0.07181100  0.54185900  0.75000000  1.0
  Br  Br8  1  0.36912600  0.73825200  0.01674300  1.0
  Br  Br9  1  0.63087400  0.26174800  0.98325700  1.0
  Br  Br10  1  0.36912600  0.73825200  0.48325700  1.0
  Br  Br11  1  0.63087400  0.26174800  0.51674300  1.0
  Br  Br12  1  0.67995700  0.94044200  0.75000000  1.0
  Br  Br13  1  0.73951500  0.05955800  0.25000000  1.0
  Br  Br14  1  0.32004300  0.05955800  0.25000000  1.0
  Br  Br15  1  0.26048500  0.94044200  0.75000000  1.0
  Br  Br16  1  0.12052100  0.24104200  0.54165100  1.0
  Br  Br17  1  0.87947900  0.75895800  0.45834900  1.0
  Br  Br18  1  0.12052100  0.24104200  0.95834900  1.0
  Br  Br19  1  0.87947900  0.75895800  0.04165100  1.0
