# generated using pymatgen
data_NbCr3S8
_symmetry_space_group_name_H-M   'P 1'
_cell_length_a   6.76487276
_cell_length_b   6.78261627
_cell_length_c   6.79431556
_cell_angle_alpha   61.33244418
_cell_angle_beta   61.25797665
_cell_angle_gamma   61.19440507
_symmetry_Int_Tables_number   1
_chemical_formula_structural   NbCr3S8
_chemical_formula_sum   'Nb1 Cr3 S8'
_cell_volume   226.69108632
_cell_formula_units_Z   1
loop_
 _symmetry_equiv_pos_site_id
 _symmetry_equiv_pos_as_xyz
  1  'x, y, z'
loop_
 _atom_site_type_symbol
 _atom_site_label
 _atom_site_symmetry_multiplicity
 _atom_site_fract_x
 _atom_site_fract_y
 _atom_site_fract_z
 _atom_site_occupancy
  Nb  Nb0  1  0.99995400  0.50006100  0.50002600  1.0
  Cr  Cr1  1  0.50004100  0.49994600  0.49994800  1.0
  Cr  Cr2  1  0.00014100  0.00004400  0.49996900  1.0
  Cr  Cr3  1  0.99986200  0.50008600  0.00003400  1.0
  S  S4  1  0.75211200  0.75489300  0.75457500  1.0
  S  S5  1  0.74478100  0.74797900  0.24563200  1.0
  S  S6  1  0.74500800  0.24547700  0.74785100  1.0
  S  S7  1  0.75547100  0.25533800  0.25538800  1.0
  S  S8  1  0.25501600  0.75448400  0.25212600  1.0
  S  S9  1  0.24463000  0.74445000  0.74465800  1.0
  S  S10  1  0.24783500  0.24514000  0.24544000  1.0
  S  S11  1  0.25516100  0.25209100  0.75435800  1.0
