# generated using pymatgen
data_NbCrO4
_symmetry_space_group_name_H-M   'P 1'
_cell_length_a   5.63803026
_cell_length_b   5.63803164
_cell_length_c   5.63803272
_cell_angle_alpha   107.10235728
_cell_angle_beta   107.10401747
_cell_angle_gamma   114.31881352
_symmetry_Int_Tables_number   1
_chemical_formula_structural   NbCrO4
_chemical_formula_sum   'Nb2 Cr2 O8'
_cell_volume   137.21518421
_cell_formula_units_Z   2
loop_
 _symmetry_equiv_pos_site_id
 _symmetry_equiv_pos_as_xyz
  1  'x, y, z'
loop_
 _atom_site_type_symbol
 _atom_site_label
 _atom_site_symmetry_multiplicity
 _atom_site_fract_x
 _atom_site_fract_y
 _atom_site_fract_z
 _atom_site_occupancy
  Nb  Nb0  1  0.73775900  0.23775900  0.50000000  1.0
  Nb  Nb1  1  0.98774100  0.98774100  0.00000000  1.0
  Cr  Cr2  1  0.24811700  0.74811600  0.49999900  1.0
  Cr  Cr3  1  0.49812300  0.49812800  0.99999800  1.0
  O  O4  1  0.05556100  0.25073800  0.80482200  1.0
  O  O5  1  0.55781800  0.75632600  0.80149100  1.0
  O  O6  1  0.00073900  0.69590600  0.69516900  1.0
  O  O7  1  0.50632700  0.20483600  0.69851100  1.0
  O  O8  1  0.00073800  0.30556900  0.30483200  1.0
  O  O9  1  0.50632500  0.80781500  0.30148900  1.0
  O  O10  1  0.95483600  0.75632700  0.19851000  1.0
  O  O11  1  0.44591700  0.25074000  0.19517900  1.0
