# generated using pymatgen
data_NbFeGe
_symmetry_space_group_name_H-M   'P 1'
_cell_length_a   6.56748600
_cell_length_b   7.10823700
_cell_length_c   7.42331959
_cell_angle_alpha   118.60559433
_cell_angle_beta   116.25424020
_cell_angle_gamma   90.00000000
_symmetry_Int_Tables_number   1
_chemical_formula_structural   NbFeGe
_chemical_formula_sum   'Nb6 Fe6 Ge6'
_cell_volume   262.80198513
_cell_formula_units_Z   6
loop_
 _symmetry_equiv_pos_site_id
 _symmetry_equiv_pos_as_xyz
  1  'x, y, z'
loop_
 _atom_site_type_symbol
 _atom_site_label
 _atom_site_symmetry_multiplicity
 _atom_site_fract_x
 _atom_site_fract_y
 _atom_site_fract_z
 _atom_site_occupancy
  Nb  Nb0  1  0.10266700  0.55559100  0.61118100  1.0
  Nb  Nb1  1  0.49148600  0.44440900  0.38881900  1.0
  Nb  Nb2  1  0.49366200  0.96741100  0.43482200  1.0
  Nb  Nb3  1  0.05884000  0.03258900  0.56517800  1.0
  Nb  Nb4  1  0.90879100  0.75045000  0.00090000  1.0
  Nb  Nb5  1  0.90789100  0.24955000  0.99910000  1.0
  Fe  Fe6  1  0.74806700  0.16294400  0.25012000  1.0
  Fe  Fe7  1  0.49794700  0.83705600  0.74988000  1.0
  Fe  Fe8  1  0.74806700  0.58717600  0.25012000  1.0
  Fe  Fe9  1  0.49794700  0.41282400  0.74988000  1.0
  Fe  Fe10  1  0.24949100  0.50000000  1.00000000  1.0
  Fe  Fe11  1  0.24949100  1.00000000  1.00000000  1.0
  Ge  Ge12  1  0.82758000  0.33700000  0.66526900  1.0
  Ge  Ge13  1  0.16231100  0.66300000  0.33473100  1.0
  Ge  Ge14  1  0.82758000  0.82826800  0.66526900  1.0
  Ge  Ge15  1  0.16231100  0.17173200  0.33473100  1.0
  Ge  Ge16  1  0.53178600  0.77784800  0.05569700  1.0
  Ge  Ge17  1  0.47608800  0.22215200  0.94430300  1.0
