# generated using pymatgen
data_NbIr3
_symmetry_space_group_name_H-M   'P 1'
_cell_length_a   4.49100200
_cell_length_b   5.59326800
_cell_length_c   5.59326785
_cell_angle_alpha   120.00000092
_cell_angle_beta   90.00000000
_cell_angle_gamma   90.00000000
_symmetry_Int_Tables_number   1
_chemical_formula_structural   NbIr3
_chemical_formula_sum   'Nb2 Ir6'
_cell_volume   121.67605563
_cell_formula_units_Z   2
loop_
 _symmetry_equiv_pos_site_id
 _symmetry_equiv_pos_as_xyz
  1  'x, y, z'
loop_
 _atom_site_type_symbol
 _atom_site_label
 _atom_site_symmetry_multiplicity
 _atom_site_fract_x
 _atom_site_fract_y
 _atom_site_fract_z
 _atom_site_occupancy
  Nb  Nb0  1  0.25000000  0.66666667  0.33333333  1.0
  Nb  Nb1  1  0.75000000  0.33333333  0.66666667  1.0
  Ir  Ir2  1  0.75000000  0.83618900  0.16381000  1.0
  Ir  Ir3  1  0.75000000  0.32762100  0.16381000  1.0
  Ir  Ir4  1  0.75000000  0.83618900  0.67237800  1.0
  Ir  Ir5  1  0.25000000  0.16381100  0.83619000  1.0
  Ir  Ir6  1  0.25000000  0.67237900  0.83619000  1.0
  Ir  Ir7  1  0.25000000  0.16381100  0.32762200  1.0
