# generated using pymatgen
data_NbMoS4
_symmetry_space_group_name_H-M   'P 1'
_cell_length_a   3.28917500
_cell_length_b   5.70296000
_cell_length_c   6.64775420
_cell_angle_alpha   106.81117007
_cell_angle_beta   90.00000000
_cell_angle_gamma   90.00000000
_symmetry_Int_Tables_number   1
_chemical_formula_structural   NbMoS4
_chemical_formula_sum   'Nb1 Mo1 S4'
_cell_volume   119.36955964
_cell_formula_units_Z   1
loop_
 _symmetry_equiv_pos_site_id
 _symmetry_equiv_pos_as_xyz
  1  'x, y, z'
loop_
 _atom_site_type_symbol
 _atom_site_label
 _atom_site_symmetry_multiplicity
 _atom_site_fract_x
 _atom_site_fract_y
 _atom_site_fract_z
 _atom_site_occupancy
  Nb  Nb0  1  0.50000000  0.50489500  0.00094900  1.0
  Mo  Mo1  1  1.00000000  0.99710700  0.00077100  1.0
  S  S2  1  1.00000000  0.58799500  0.75327000  1.0
  S  S3  1  0.50000000  0.08045100  0.75930000  1.0
  S  S4  1  0.50000000  0.24286600  0.24199800  1.0
  S  S5  1  0.00000000  0.75468800  0.24771300  1.0
