# generated using pymatgen
data_NbSeS
_symmetry_space_group_name_H-M   'P 1'
_cell_length_a   3.43056800
_cell_length_b   3.43056797
_cell_length_c   13.45482300
_cell_angle_alpha   90.00000000
_cell_angle_beta   90.00000000
_cell_angle_gamma   120.00000031
_symmetry_Int_Tables_number   1
_chemical_formula_structural   NbSeS
_chemical_formula_sum   'Nb2 Se2 S2'
_cell_volume   137.13259054
_cell_formula_units_Z   2
loop_
 _symmetry_equiv_pos_site_id
 _symmetry_equiv_pos_as_xyz
  1  'x, y, z'
loop_
 _atom_site_type_symbol
 _atom_site_label
 _atom_site_symmetry_multiplicity
 _atom_site_fract_x
 _atom_site_fract_y
 _atom_site_fract_z
 _atom_site_occupancy
  Nb  Nb0  1  0.00000000  0.00000000  0.73953300  1.0
  Nb  Nb1  1  0.00000000  0.00000000  0.26046700  1.0
  Se  Se2  1  0.66666667  0.33333333  0.13152900  1.0
  Se  Se3  1  0.33333333  0.66666667  0.86847100  1.0
  S  S4  1  0.33333333  0.66666667  0.62800000  1.0
  S  S5  1  0.66666667  0.33333333  0.37200000  1.0
