# generated using pymatgen
data_NbSeBr3
_symmetry_space_group_name_H-M   'P 1'
_cell_length_a   7.14842600
_cell_length_b   7.50285600
_cell_length_c   12.81089823
_cell_angle_alpha   90.00000000
_cell_angle_beta   81.83366572
_cell_angle_gamma   90.00000000
_symmetry_Int_Tables_number   1
_chemical_formula_structural   NbSeBr3
_chemical_formula_sum   'Nb4 Se4 Br12'
_cell_volume   680.12749810
_cell_formula_units_Z   4
loop_
 _symmetry_equiv_pos_site_id
 _symmetry_equiv_pos_as_xyz
  1  'x, y, z'
loop_
 _atom_site_type_symbol
 _atom_site_label
 _atom_site_symmetry_multiplicity
 _atom_site_fract_x
 _atom_site_fract_y
 _atom_site_fract_z
 _atom_site_occupancy
  Nb  Nb0  1  0.93143000  0.37217000  0.15004000  1.0
  Nb  Nb1  1  0.06857000  0.37217000  0.34996000  1.0
  Nb  Nb2  1  0.06857000  0.62783000  0.84996000  1.0
  Nb  Nb3  1  0.93143000  0.62783000  0.65004000  1.0
  Se  Se4  1  0.84899200  0.88029900  0.79790200  1.0
  Se  Se5  1  0.84899200  0.11970100  0.29790200  1.0
  Se  Se6  1  0.15100800  0.11970100  0.20209800  1.0
  Se  Se7  1  0.15100800  0.88029900  0.70209800  1.0
  Br  Br8  1  0.65230700  0.23235200  0.07841100  1.0
  Br  Br9  1  0.34769300  0.23235200  0.42158900  1.0
  Br  Br10  1  0.34769300  0.76764800  0.92158900  1.0
  Br  Br11  1  0.65230700  0.76764800  0.57841100  1.0
  Br  Br12  1  0.76475600  0.56596200  0.30365800  1.0
  Br  Br13  1  0.23524400  0.56596200  0.19634200  1.0
  Br  Br14  1  0.23524400  0.43403800  0.69634200  1.0
  Br  Br15  1  0.76475600  0.43403800  0.80365800  1.0
  Br  Br16  1  0.85626400  0.67515600  0.03841200  1.0
  Br  Br17  1  0.85626400  0.32484400  0.53841200  1.0
  Br  Br18  1  0.14373600  0.32484400  0.96158800  1.0
  Br  Br19  1  0.14373600  0.67515600  0.46158800  1.0
