# generated using pymatgen
data_Nd2Bi
_symmetry_space_group_name_H-M   'P 1'
_cell_length_a   4.64664600
_cell_length_b   4.64664600
_cell_length_c   9.68492074
_cell_angle_alpha   103.88009304
_cell_angle_beta   103.88009305
_cell_angle_gamma   89.99999998
_symmetry_Int_Tables_number   1
_chemical_formula_structural   Nd2Bi
_chemical_formula_sum   'Nd4 Bi2'
_cell_volume   196.70868381
_cell_formula_units_Z   2
loop_
 _symmetry_equiv_pos_site_id
 _symmetry_equiv_pos_as_xyz
  1  'x, y, z'
loop_
 _atom_site_type_symbol
 _atom_site_label
 _atom_site_symmetry_multiplicity
 _atom_site_fract_x
 _atom_site_fract_y
 _atom_site_fract_z
 _atom_site_occupancy
  Nd  Nd0  1  0.00000000  0.50000000  1.00000000  1.0
  Nd  Nd1  1  0.50000000  1.00000000  1.00000000  1.0
  Nd  Nd2  1  0.82080000  0.82080000  0.64160000  1.0
  Nd  Nd3  1  0.17920000  0.17920000  0.35840000  1.0
  Bi  Bi4  1  0.63902400  0.63902400  0.27804800  1.0
  Bi  Bi5  1  0.36097600  0.36097600  0.72195200  1.0
