# generated using pymatgen
data_Nd2CoSn4
_symmetry_space_group_name_H-M   'P 1'
_cell_length_a   4.55941300
_cell_length_b   4.56588200
_cell_length_c   8.81104275
_cell_angle_alpha   90.00000000
_cell_angle_beta   75.00510740
_cell_angle_gamma   90.00000000
_symmetry_Int_Tables_number   1
_chemical_formula_structural   Nd2CoSn4
_chemical_formula_sum   'Nd2 Co1 Sn4'
_cell_volume   177.18015384
_cell_formula_units_Z   1
loop_
 _symmetry_equiv_pos_site_id
 _symmetry_equiv_pos_as_xyz
  1  'x, y, z'
loop_
 _atom_site_type_symbol
 _atom_site_label
 _atom_site_symmetry_multiplicity
 _atom_site_fract_x
 _atom_site_fract_y
 _atom_site_fract_z
 _atom_site_occupancy
  Nd  Nd0  1  0.09322800  0.25000000  0.81354500  1.0
  Nd  Nd1  1  0.88757100  0.75000000  0.22485800  1.0
  Co  Co2  1  0.29526400  0.25000000  0.40947100  1.0
  Sn  Sn3  1  0.73234500  0.25000000  0.53530900  1.0
  Sn  Sn4  1  0.23382000  0.75000000  0.53236100  1.0
  Sn  Sn5  1  0.44093900  0.25000000  0.11812300  1.0
  Sn  Sn6  1  0.55683400  0.75000000  0.88633200  1.0
