# generated using pymatgen
data_Nd2Ge5Ir3
_symmetry_space_group_name_H-M   'P 1'
_cell_length_a   6.10600400
_cell_length_b   8.48190814
_cell_length_c   8.48190814
_cell_angle_alpha   74.95604540
_cell_angle_beta   68.90331509
_cell_angle_gamma   68.90331509
_symmetry_Int_Tables_number   1
_chemical_formula_structural   Nd2Ge5Ir3
_chemical_formula_sum   'Nd4 Ge10 Ir6'
_cell_volume   378.08128375
_cell_formula_units_Z   2
loop_
 _symmetry_equiv_pos_site_id
 _symmetry_equiv_pos_as_xyz
  1  'x, y, z'
loop_
 _atom_site_type_symbol
 _atom_site_label
 _atom_site_symmetry_multiplicity
 _atom_site_fract_x
 _atom_site_fract_y
 _atom_site_fract_z
 _atom_site_occupancy
  Nd  Nd0  1  0.63403300  0.59298400  0.13895000  1.0
  Nd  Nd1  1  0.36596700  0.40701600  0.86105000  1.0
  Nd  Nd2  1  0.13403200  0.13895000  0.59298500  1.0
  Nd  Nd3  1  0.86596800  0.86105000  0.40701500  1.0
  Ge  Ge4  1  0.25000000  0.50000000  0.50000000  1.0
  Ge  Ge5  1  0.75000000  0.50000000  0.50000000  1.0
  Ge  Ge6  1  0.47376300  0.77623700  0.77623700  1.0
  Ge  Ge7  1  0.02623700  0.22376300  0.22376300  1.0
  Ge  Ge8  1  0.52623700  0.22376300  0.22376300  1.0
  Ge  Ge9  1  0.97376300  0.77623700  0.77623700  1.0
  Ge  Ge10  1  0.90099700  0.25993100  0.93807400  1.0
  Ge  Ge11  1  0.09900300  0.74006900  0.06192600  1.0
  Ge  Ge12  1  0.40099800  0.93807300  0.25993100  1.0
  Ge  Ge13  1  0.59900200  0.06192700  0.74006900  1.0
  Ir  Ir14  1  0.25000000  1.00000000  0.00000000  1.0
  Ir  Ir15  1  0.75000000  0.00000000  1.00000000  1.0
  Ir  Ir16  1  0.85835400  0.53196500  0.75132600  1.0
  Ir  Ir17  1  0.14164600  0.46803500  0.24867400  1.0
  Ir  Ir18  1  0.35835500  0.75132500  0.53196500  1.0
  Ir  Ir19  1  0.64164500  0.24867500  0.46803500  1.0
