# generated using pymatgen
data_Nd2MgSe4
_symmetry_space_group_name_H-M   'P 1'
_cell_length_a   8.48973049
_cell_length_b   8.48973049
_cell_length_c   8.48973049
_cell_angle_alpha   60.00000000
_cell_angle_beta   60.00000000
_cell_angle_gamma   60.00000000
_symmetry_Int_Tables_number   1
_chemical_formula_structural   Nd2MgSe4
_chemical_formula_sum   'Nd4 Mg2 Se8'
_cell_volume   432.67989235
_cell_formula_units_Z   2
loop_
 _symmetry_equiv_pos_site_id
 _symmetry_equiv_pos_as_xyz
  1  'x, y, z'
loop_
 _atom_site_type_symbol
 _atom_site_label
 _atom_site_symmetry_multiplicity
 _atom_site_fract_x
 _atom_site_fract_y
 _atom_site_fract_z
 _atom_site_occupancy
  Nd  Nd0  1  0.87500000  0.87500000  0.87500000  1.0
  Nd  Nd1  1  0.87500000  0.37500000  0.87500000  1.0
  Nd  Nd2  1  0.87500000  0.87500000  0.37500000  1.0
  Nd  Nd3  1  0.37500000  0.87500000  0.87500000  1.0
  Mg  Mg4  1  0.50000000  0.50000000  0.50000000  1.0
  Mg  Mg5  1  0.25000000  0.25000000  0.25000000  1.0
  Se  Se6  1  0.63323500  0.12225500  0.12225500  1.0
  Se  Se7  1  0.12225500  0.12225500  0.63323500  1.0
  Se  Se8  1  0.12225500  0.12225500  0.12225500  1.0
  Se  Se9  1  0.12225500  0.63323500  0.12225500  1.0
  Se  Se10  1  0.62774500  0.11676500  0.62774500  1.0
  Se  Se11  1  0.62774500  0.62774500  0.62774500  1.0
  Se  Se12  1  0.62774500  0.62774500  0.11676500  1.0
  Se  Se13  1  0.11676500  0.62774500  0.62774500  1.0
