# generated using pymatgen
data_Nd2Ni5B4
_symmetry_space_group_name_H-M   'P 1'
_cell_length_a   5.09494600
_cell_length_b   5.52416946
_cell_length_c   6.13345856
_cell_angle_alpha   70.88527713
_cell_angle_beta   65.45924645
_cell_angle_gamma   62.53863383
_symmetry_Int_Tables_number   1
_chemical_formula_structural   Nd2Ni5B4
_chemical_formula_sum   'Nd2 Ni5 B4'
_cell_volume   137.34989119
_cell_formula_units_Z   1
loop_
 _symmetry_equiv_pos_site_id
 _symmetry_equiv_pos_as_xyz
  1  'x, y, z'
loop_
 _atom_site_type_symbol
 _atom_site_label
 _atom_site_symmetry_multiplicity
 _atom_site_fract_x
 _atom_site_fract_y
 _atom_site_fract_z
 _atom_site_occupancy
  Nd  Nd0  1  0.72540500  0.19810700  0.35108300  1.0
  Nd  Nd1  1  0.27459500  0.80189300  0.64891700  1.0
  Ni  Ni2  1  0.82313500  0.72204300  0.12791500  1.0
  Ni  Ni3  1  0.17686500  0.27795700  0.87208500  1.0
  Ni  Ni4  1  0.00000000  0.50000000  0.50000000  1.0
  Ni  Ni5  1  0.32690700  0.72204300  0.12791500  1.0
  Ni  Ni6  1  0.67309300  0.27795700  0.87208500  1.0
  B  B7  1  0.59923400  0.94179100  0.85974100  1.0
  B  B8  1  0.40076600  0.05820900  0.14025900  1.0
  B  B9  1  0.22184200  0.39675500  0.15956100  1.0
  B  B10  1  0.77815800  0.60324500  0.84043900  1.0
