# generated using pymatgen
data_Nd2PdRu3
_symmetry_space_group_name_H-M   'P 1'
_cell_length_a   5.34207718
_cell_length_b   5.34207718
_cell_length_c   5.57964441
_cell_angle_alpha   61.39873401
_cell_angle_beta   61.39873401
_cell_angle_gamma   60.00000000
_symmetry_Int_Tables_number   1
_chemical_formula_structural   Nd2PdRu3
_chemical_formula_sum   'Nd2 Pd1 Ru3'
_cell_volume   114.91511104
_cell_formula_units_Z   1
loop_
 _symmetry_equiv_pos_site_id
 _symmetry_equiv_pos_as_xyz
  1  'x, y, z'
loop_
 _atom_site_type_symbol
 _atom_site_label
 _atom_site_symmetry_multiplicity
 _atom_site_fract_x
 _atom_site_fract_y
 _atom_site_fract_z
 _atom_site_occupancy
  Nd  Nd0  1  0.24628800  0.24628800  0.26113500  1.0
  Nd  Nd1  1  0.00371200  0.00371200  0.98886500  1.0
  Pd  Pd2  1  0.62500000  0.62500000  0.12500000  1.0
  Ru  Ru3  1  0.62500000  0.12500000  0.62500000  1.0
  Ru  Ru4  1  0.12500000  0.62500000  0.62500000  1.0
  Ru  Ru5  1  0.62500000  0.62500000  0.62500000  1.0
