# generated using pymatgen
data_Nd2PbSe4
_symmetry_space_group_name_H-M   'P 1'
_cell_length_a   7.83962503
_cell_length_b   7.83962503
_cell_length_c   7.83962503
_cell_angle_alpha   109.57767822
_cell_angle_beta   109.41801808
_cell_angle_gamma   109.41801808
_symmetry_Int_Tables_number   1
_chemical_formula_structural   Nd2PbSe4
_chemical_formula_sum   'Nd4 Pb2 Se8'
_cell_volume   370.90514446
_cell_formula_units_Z   2
loop_
 _symmetry_equiv_pos_site_id
 _symmetry_equiv_pos_as_xyz
  1  'x, y, z'
loop_
 _atom_site_type_symbol
 _atom_site_label
 _atom_site_symmetry_multiplicity
 _atom_site_fract_x
 _atom_site_fract_y
 _atom_site_fract_z
 _atom_site_occupancy
  Nd  Nd0  1  0.88103000  0.25603000  0.87500000  1.0
  Nd  Nd1  1  0.11897000  0.99397000  0.37500000  1.0
  Nd  Nd2  1  0.38103000  0.12500000  0.00603000  1.0
  Nd  Nd3  1  0.61897000  0.62500000  0.74397000  1.0
  Pb  Pb4  1  0.50000000  0.75000000  0.25000000  1.0
  Pb  Pb5  1  0.00000000  0.50000000  0.50000000  1.0
  Se  Se6  1  0.25217900  0.36739900  0.77002600  1.0
  Se  Se7  1  0.59737300  0.22997300  0.48215300  1.0
  Se  Se8  1  0.75217900  0.02002600  0.11739900  1.0
  Se  Se9  1  0.40262700  0.88478000  0.63260100  1.0
  Se  Se10  1  0.09737300  0.73215300  0.97997300  1.0
  Se  Se11  1  0.74782100  0.51784700  0.11522100  1.0
  Se  Se12  1  0.90262700  0.88260100  0.63478000  1.0
  Se  Se13  1  0.24782100  0.36522100  0.26784700  1.0
