# generated using pymatgen
data_Nd2Tm
_symmetry_space_group_name_H-M   'P 1'
_cell_length_a   3.60820624
_cell_length_b   3.60820624
_cell_length_c   9.15636483
_cell_angle_alpha   78.63650970
_cell_angle_beta   78.63650970
_cell_angle_gamma   59.99999553
_symmetry_Int_Tables_number   1
_chemical_formula_structural   Nd2Tm
_chemical_formula_sum   'Nd2 Tm1'
_cell_volume   100.52983598
_cell_formula_units_Z   1
loop_
 _symmetry_equiv_pos_site_id
 _symmetry_equiv_pos_as_xyz
  1  'x, y, z'
loop_
 _atom_site_type_symbol
 _atom_site_label
 _atom_site_symmetry_multiplicity
 _atom_site_fract_x
 _atom_site_fract_y
 _atom_site_fract_z
 _atom_site_occupancy
  Nd  Nd0  1  0.77461300  0.77461300  0.67616100  1.0
  Nd  Nd1  1  0.22538700  0.22538700  0.32383900  1.0
  Tm  Tm2  1  0.00000000  0.00000000  0.00000000  1.0
