# generated using pymatgen
data_Nd3In4Ge
_symmetry_space_group_name_H-M   'P 1'
_cell_length_a   8.57446429
_cell_length_b   8.57446429
_cell_length_c   8.57446429
_cell_angle_alpha   89.47516078
_cell_angle_beta   60.30255204
_cell_angle_gamma   119.69744796
_symmetry_Int_Tables_number   1
_chemical_formula_structural   Nd3In4Ge
_chemical_formula_sum   'Nd6 In8 Ge2'
_cell_volume   447.78319709
_cell_formula_units_Z   2
loop_
 _symmetry_equiv_pos_site_id
 _symmetry_equiv_pos_as_xyz
  1  'x, y, z'
loop_
 _atom_site_type_symbol
 _atom_site_label
 _atom_site_symmetry_multiplicity
 _atom_site_fract_x
 _atom_site_fract_y
 _atom_site_fract_z
 _atom_site_occupancy
  Nd  Nd0  1  1.00000000  0.25000000  0.75000000  1.0
  Nd  Nd1  1  1.00000000  0.75000000  0.25000000  1.0
  Nd  Nd2  1  0.82933400  0.66466700  0.83533300  1.0
  Nd  Nd3  1  0.17066600  0.33533300  0.16466700  1.0
  Nd  Nd4  1  0.50000000  0.16466700  0.66466700  1.0
  Nd  Nd5  1  0.50000000  0.83533300  0.33533300  1.0
  In  In6  1  0.78128200  0.96362100  0.53637900  1.0
  In  In7  1  0.21871800  0.03637900  0.46362100  1.0
  In  In8  1  0.21871800  0.68233900  0.81766100  1.0
  In  In9  1  0.50000000  0.46362100  0.31766100  1.0
  In  In10  1  0.50000000  0.81766100  0.96362100  1.0
  In  In11  1  0.78128200  0.31766100  0.18233900  1.0
  In  In12  1  0.50000000  0.53637900  0.68233900  1.0
  In  In13  1  0.50000000  0.18233900  0.03637900  1.0
  Ge  Ge14  1  1.00000000  0.50000000  0.50000000  1.0
  Ge  Ge15  1  0.00000000  0.00000000  0.00000000  1.0
