# generated using pymatgen
data_Nd5Ga3
_symmetry_space_group_name_H-M   'P 1'
_cell_length_a   7.88692200
_cell_length_b   7.88692200
_cell_length_c   9.18764283
_cell_angle_alpha   115.41766182
_cell_angle_beta   115.41766181
_cell_angle_gamma   90.00000001
_symmetry_Int_Tables_number   1
_chemical_formula_structural   Nd5Ga3
_chemical_formula_sum   'Nd10 Ga6'
_cell_volume   454.17534286
_cell_formula_units_Z   2
loop_
 _symmetry_equiv_pos_site_id
 _symmetry_equiv_pos_as_xyz
  1  'x, y, z'
loop_
 _atom_site_type_symbol
 _atom_site_label
 _atom_site_symmetry_multiplicity
 _atom_site_fract_x
 _atom_site_fract_y
 _atom_site_fract_z
 _atom_site_occupancy
  Nd  Nd0  1  0.50000000  0.50000000  0.00000000  1.0
  Nd  Nd1  1  0.00000000  0.00000000  0.00000000  1.0
  Nd  Nd2  1  0.52354400  0.67889200  0.70243600  1.0
  Nd  Nd3  1  0.17889100  0.02354300  0.70243400  1.0
  Nd  Nd4  1  0.02354400  0.52354400  0.70243500  1.0
  Nd  Nd5  1  0.67889100  0.17889100  0.70243500  1.0
  Nd  Nd6  1  0.47645600  0.32110800  0.29756400  1.0
  Nd  Nd7  1  0.82110900  0.97645700  0.29756600  1.0
  Nd  Nd8  1  0.97645600  0.47645600  0.29756500  1.0
  Nd  Nd9  1  0.32110900  0.82110900  0.29756500  1.0
  Ga  Ga10  1  0.25000000  0.25000000  0.50000000  1.0
  Ga  Ga11  1  0.75000000  0.75000000  0.50000000  1.0
  Ga  Ga12  1  0.88151200  0.61848900  0.00000100  1.0
  Ga  Ga13  1  0.11848800  0.38151100  0.99999900  1.0
  Ga  Ga14  1  0.38151200  0.88151200  1.00000000  1.0
  Ga  Ga15  1  0.61848800  0.11848800  1.00000000  1.0
