# generated using pymatgen
data_Nd5Ir2
_symmetry_space_group_name_H-M   'P 1'
_cell_length_a   6.70576000
_cell_length_b   7.34978416
_cell_length_c   8.97896847
_cell_angle_alpha   96.53027432
_cell_angle_beta   111.92637360
_cell_angle_gamma   90.00000000
_symmetry_Int_Tables_number   1
_chemical_formula_structural   Nd5Ir2
_chemical_formula_sum   'Nd10 Ir4'
_cell_volume   407.42858556
_cell_formula_units_Z   2
loop_
 _symmetry_equiv_pos_site_id
 _symmetry_equiv_pos_as_xyz
  1  'x, y, z'
loop_
 _atom_site_type_symbol
 _atom_site_label
 _atom_site_symmetry_multiplicity
 _atom_site_fract_x
 _atom_site_fract_y
 _atom_site_fract_z
 _atom_site_occupancy
  Nd  Nd0  1  0.20349200  0.91973400  0.18545900  1.0
  Nd  Nd1  1  0.01803300  0.58026600  0.81454100  1.0
  Nd  Nd2  1  0.79650800  0.08026600  0.81454100  1.0
  Nd  Nd3  1  0.98196700  0.41973400  0.18545900  1.0
  Nd  Nd4  1  0.78493800  0.81572500  0.43520200  1.0
  Nd  Nd5  1  0.34973600  0.68427500  0.56479800  1.0
  Nd  Nd6  1  0.21506200  0.18427500  0.56479800  1.0
  Nd  Nd7  1  0.65026400  0.31572500  0.43520200  1.0
  Nd  Nd8  1  0.56713200  0.75000000  0.00000000  1.0
  Nd  Nd9  1  0.43286800  0.25000000  0.00000000  1.0
  Ir  Ir10  1  0.40179300  0.57392300  0.22281000  1.0
  Ir  Ir11  1  0.17898300  0.92607700  0.77719000  1.0
  Ir  Ir12  1  0.59820700  0.42607700  0.77719000  1.0
  Ir  Ir13  1  0.82101700  0.07392300  0.22281000  1.0
