# generated using pymatgen
data_Nd5Ru2
_symmetry_space_group_name_H-M   'P 1'
_cell_length_a   6.59526000
_cell_length_b   7.38735953
_cell_length_c   8.85636131
_cell_angle_alpha   96.12089118
_cell_angle_beta   111.86036918
_cell_angle_gamma   90.00000000
_symmetry_Int_Tables_number   1
_chemical_formula_structural   Nd5Ru2
_chemical_formula_sum   'Nd10 Ru4'
_cell_volume   397.81688016
_cell_formula_units_Z   2
loop_
 _symmetry_equiv_pos_site_id
 _symmetry_equiv_pos_as_xyz
  1  'x, y, z'
loop_
 _atom_site_type_symbol
 _atom_site_label
 _atom_site_symmetry_multiplicity
 _atom_site_fract_x
 _atom_site_fract_y
 _atom_site_fract_z
 _atom_site_occupancy
  Nd  Nd0  1  0.20693200  0.91489200  0.18573700  1.0
  Nd  Nd1  1  0.02119500  0.58510800  0.81426300  1.0
  Nd  Nd2  1  0.79306800  0.08510800  0.81426300  1.0
  Nd  Nd3  1  0.97880500  0.41489200  0.18573700  1.0
  Nd  Nd4  1  0.79367400  0.81486100  0.43435200  1.0
  Nd  Nd5  1  0.35932200  0.68513900  0.56564800  1.0
  Nd  Nd6  1  0.20632600  0.18513900  0.56564800  1.0
  Nd  Nd7  1  0.64067800  0.31486100  0.43435200  1.0
  Nd  Nd8  1  0.57948700  0.75000000  0.00000000  1.0
  Nd  Nd9  1  0.42051300  0.25000000  0.00000000  1.0
  Ru  Ru10  1  0.39809900  0.57557400  0.22077000  1.0
  Ru  Ru11  1  0.17732900  0.92442600  0.77923000  1.0
  Ru  Ru12  1  0.60190100  0.42442600  0.77923000  1.0
  Ru  Ru13  1  0.82267100  0.07557400  0.22077000  1.0
