# generated using pymatgen
data_NdAlNi4
_symmetry_space_group_name_H-M   'P 1'
_cell_length_a   4.03990000
_cell_length_b   4.96107066
_cell_length_c   4.96107066
_cell_angle_alpha   118.02603673
_cell_angle_beta   90.00000000
_cell_angle_gamma   90.00000000
_symmetry_Int_Tables_number   1
_chemical_formula_structural   NdAlNi4
_chemical_formula_sum   'Nd1 Al1 Ni4'
_cell_volume   87.77106627
_cell_formula_units_Z   1
loop_
 _symmetry_equiv_pos_site_id
 _symmetry_equiv_pos_as_xyz
  1  'x, y, z'
loop_
 _atom_site_type_symbol
 _atom_site_label
 _atom_site_symmetry_multiplicity
 _atom_site_fract_x
 _atom_site_fract_y
 _atom_site_fract_z
 _atom_site_occupancy
  Nd  Nd0  1  1.00000000  0.50000000  0.50000000  1.0
  Al  Al1  1  0.50000000  0.00000000  0.00000000  1.0
  Ni  Ni2  1  1.00000000  0.83287300  0.16712700  1.0
  Ni  Ni3  1  1.00000000  0.16712700  0.83287300  1.0
  Ni  Ni4  1  0.50000000  0.50000000  1.00000000  1.0
  Ni  Ni5  1  0.50000000  0.00000000  0.50000000  1.0
