# generated using pymatgen
data_NdAsPd
_symmetry_space_group_name_H-M   'P 1'
_cell_length_a   4.39118200
_cell_length_b   4.39118186
_cell_length_c   7.82285100
_cell_angle_alpha   90.00000000
_cell_angle_beta   90.00000000
_cell_angle_gamma   120.00000108
_symmetry_Int_Tables_number   1
_chemical_formula_structural   NdAsPd
_chemical_formula_sum   'Nd2 As2 Pd2'
_cell_volume   130.63469840
_cell_formula_units_Z   2
loop_
 _symmetry_equiv_pos_site_id
 _symmetry_equiv_pos_as_xyz
  1  'x, y, z'
loop_
 _atom_site_type_symbol
 _atom_site_label
 _atom_site_symmetry_multiplicity
 _atom_site_fract_x
 _atom_site_fract_y
 _atom_site_fract_z
 _atom_site_occupancy
  Nd  Nd0  1  0.00000000  0.00000000  0.50027000  1.0
  Nd  Nd1  1  0.00000000  0.00000000  0.00027000  1.0
  As  As2  1  0.33333333  0.66666667  0.73662800  1.0
  As  As3  1  0.66666667  0.33333333  0.23662800  1.0
  Pd  Pd4  1  0.66666667  0.33333333  0.76380100  1.0
  Pd  Pd5  1  0.33333333  0.66666667  0.26380100  1.0
