# generated using pymatgen
data_NdCuAg
_symmetry_space_group_name_H-M   'P 1'
_cell_length_a   4.50233000
_cell_length_b   5.64589722
_cell_length_c   5.99765314
_cell_angle_alpha   76.15620655
_cell_angle_beta   67.95461105
_cell_angle_gamma   66.50145253
_symmetry_Int_Tables_number   1
_chemical_formula_structural   NdCuAg
_chemical_formula_sum   'Nd2 Cu2 Ag2'
_cell_volume   128.87055661
_cell_formula_units_Z   2
loop_
 _symmetry_equiv_pos_site_id
 _symmetry_equiv_pos_as_xyz
  1  'x, y, z'
loop_
 _atom_site_type_symbol
 _atom_site_label
 _atom_site_symmetry_multiplicity
 _atom_site_fract_x
 _atom_site_fract_y
 _atom_site_fract_z
 _atom_site_occupancy
  Nd  Nd0  1  0.54737200  0.20227600  0.70298000  1.0
  Nd  Nd1  1  0.45262800  0.79772400  0.29702000  1.0
  Cu  Cu2  1  0.14941800  0.38808300  0.31308100  1.0
  Cu  Cu3  1  0.85058200  0.61191700  0.68691900  1.0
  Ag  Ag4  1  0.82471600  0.23759200  0.11297600  1.0
  Ag  Ag5  1  0.17528400  0.76240800  0.88702400  1.0
