# generated using pymatgen
data_NdEr3
_symmetry_space_group_name_H-M   'P 1'
_cell_length_a   5.70289000
_cell_length_b   7.23139800
_cell_length_c   7.23139854
_cell_angle_alpha   60.00000248
_cell_angle_beta   90.00000000
_cell_angle_gamma   90.00000000
_symmetry_Int_Tables_number   1
_chemical_formula_structural   NdEr3
_chemical_formula_sum   'Nd2 Er6'
_cell_volume   258.26776198
_cell_formula_units_Z   2
loop_
 _symmetry_equiv_pos_site_id
 _symmetry_equiv_pos_as_xyz
  1  'x, y, z'
loop_
 _atom_site_type_symbol
 _atom_site_label
 _atom_site_symmetry_multiplicity
 _atom_site_fract_x
 _atom_site_fract_y
 _atom_site_fract_z
 _atom_site_occupancy
  Nd  Nd0  1  0.75000000  0.66666667  0.66666667  1.0
  Nd  Nd1  1  0.25000000  0.33333333  0.33333333  1.0
  Er  Er2  1  0.25000000  0.83563400  0.32873200  1.0
  Er  Er3  1  0.25000000  0.83563400  0.83563300  1.0
  Er  Er4  1  0.25000000  0.32873300  0.83563300  1.0
  Er  Er5  1  0.75000000  0.16436600  0.67126800  1.0
  Er  Er6  1  0.75000000  0.16436600  0.16436700  1.0
  Er  Er7  1  0.75000000  0.67126700  0.16436700  1.0
