# generated using pymatgen
data_NdGa2Ni
_symmetry_space_group_name_H-M   'P 1'
_cell_length_a   4.17576600
_cell_length_b   4.20764000
_cell_length_c   9.02217498
_cell_angle_alpha   103.48455519
_cell_angle_beta   90.00000000
_cell_angle_gamma   90.00000000
_symmetry_Int_Tables_number   1
_chemical_formula_structural   NdGa2Ni
_chemical_formula_sum   'Nd2 Ga4 Ni2'
_cell_volume   154.15072781
_cell_formula_units_Z   2
loop_
 _symmetry_equiv_pos_site_id
 _symmetry_equiv_pos_as_xyz
  1  'x, y, z'
loop_
 _atom_site_type_symbol
 _atom_site_label
 _atom_site_symmetry_multiplicity
 _atom_site_fract_x
 _atom_site_fract_y
 _atom_site_fract_z
 _atom_site_occupancy
  Nd  Nd0  1  1.00000000  0.85826500  0.71653000  1.0
  Nd  Nd1  1  1.00000000  0.14173500  0.28347000  1.0
  Ga  Ga2  1  0.50000000  0.00000000  0.00000000  1.0
  Ga  Ga3  1  0.50000000  0.70914700  0.41829400  1.0
  Ga  Ga4  1  1.00000000  0.50000000  0.00000000  1.0
  Ga  Ga5  1  0.50000000  0.29085300  0.58170600  1.0
  Ni  Ni6  1  0.50000000  0.57309500  0.14619000  1.0
  Ni  Ni7  1  0.50000000  0.42690500  0.85381000  1.0
