# generated using pymatgen
data_NdGaSb2
_symmetry_space_group_name_H-M   'P 1'
_cell_length_a   4.38387600
_cell_length_b   4.38387600
_cell_length_c   22.87038700
_cell_angle_alpha   95.49976983
_cell_angle_beta   95.49976982
_cell_angle_gamma   90.00000004
_symmetry_Int_Tables_number   1
_chemical_formula_structural   NdGaSb2
_chemical_formula_sum   'Nd4 Ga4 Sb8'
_cell_volume   435.47543709
_cell_formula_units_Z   4
loop_
 _symmetry_equiv_pos_site_id
 _symmetry_equiv_pos_as_xyz
  1  'x, y, z'
loop_
 _atom_site_type_symbol
 _atom_site_label
 _atom_site_symmetry_multiplicity
 _atom_site_fract_x
 _atom_site_fract_y
 _atom_site_fract_z
 _atom_site_occupancy
  Nd  Nd0  1  0.55578800  0.05578800  0.11157600  1.0
  Nd  Nd1  1  0.80578800  0.80578800  0.61157600  1.0
  Nd  Nd2  1  0.19421200  0.19421200  0.38842400  1.0
  Nd  Nd3  1  0.94421200  0.44421200  0.88842400  1.0
  Ga  Ga4  1  0.87500000  0.96206400  0.25000000  1.0
  Ga  Ga5  1  0.71206400  0.12500000  0.75000000  1.0
  Ga  Ga6  1  0.37500000  0.28793600  0.25000000  1.0
  Ga  Ga7  1  0.03793600  0.62500000  0.75000000  1.0
  Sb  Sb8  1  0.42080800  0.92080800  0.84161600  1.0
  Sb  Sb9  1  0.67080800  0.67080800  0.34161600  1.0
  Sb  Sb10  1  0.32919200  0.32919200  0.65838400  1.0
  Sb  Sb11  1  0.07919200  0.57919200  0.15838400  1.0
  Sb  Sb12  1  0.00000000  0.00000000  0.00000000  1.0
  Sb  Sb13  1  0.75000000  0.25000000  0.50000000  1.0
  Sb  Sb14  1  0.25000000  0.75000000  0.50000000  1.0
  Sb  Sb15  1  0.50000000  0.50000000  0.00000000  1.0
