# generated using pymatgen
data_NdLuSe3
_symmetry_space_group_name_H-M   'P 1'
_cell_length_a   4.02916200
_cell_length_b   6.86544829
_cell_length_c   9.96825200
_cell_angle_alpha   90.00000000
_cell_angle_beta   90.00000000
_cell_angle_gamma   107.06387553
_symmetry_Int_Tables_number   1
_chemical_formula_structural   NdLuSe3
_chemical_formula_sum   'Nd2 Lu2 Se6'
_cell_volume   263.60317299
_cell_formula_units_Z   2
loop_
 _symmetry_equiv_pos_site_id
 _symmetry_equiv_pos_as_xyz
  1  'x, y, z'
loop_
 _atom_site_type_symbol
 _atom_site_label
 _atom_site_symmetry_multiplicity
 _atom_site_fract_x
 _atom_site_fract_y
 _atom_site_fract_z
 _atom_site_occupancy
  Nd  Nd0  1  0.74837900  0.49675800  0.25000000  1.0
  Nd  Nd1  1  0.25162100  0.50324200  0.75000000  1.0
  Lu  Lu2  1  0.00000000  0.00000000  0.00000000  1.0
  Lu  Lu3  1  0.00000000  0.00000000  0.50000000  1.0
  Se  Se4  1  0.91332100  0.82664200  0.75000000  1.0
  Se  Se5  1  0.08667900  0.17335800  0.25000000  1.0
  Se  Se6  1  0.35668300  0.71336600  0.43787800  1.0
  Se  Se7  1  0.64331700  0.28663400  0.56212200  1.0
  Se  Se8  1  0.35668300  0.71336600  0.06212200  1.0
  Se  Se9  1  0.64331700  0.28663400  0.93787800  1.0
