# generated using pymatgen
data_NdTlPd
_symmetry_space_group_name_H-M   'P 1'
_cell_length_a   3.94294200
_cell_length_b   7.97973400
_cell_length_c   7.97973369
_cell_angle_alpha   120.00000129
_cell_angle_beta   90.00000000
_cell_angle_gamma   90.00000000
_symmetry_Int_Tables_number   1
_chemical_formula_structural   NdTlPd
_chemical_formula_sum   'Nd3 Tl3 Pd3'
_cell_volume   217.43418617
_cell_formula_units_Z   3
loop_
 _symmetry_equiv_pos_site_id
 _symmetry_equiv_pos_as_xyz
  1  'x, y, z'
loop_
 _atom_site_type_symbol
 _atom_site_label
 _atom_site_symmetry_multiplicity
 _atom_site_fract_x
 _atom_site_fract_y
 _atom_site_fract_z
 _atom_site_occupancy
  Nd  Nd0  1  0.50000000  0.40552400  0.40552400  1.0
  Nd  Nd1  1  0.50000000  0.59447600  1.00000000  1.0
  Nd  Nd2  1  0.50000000  0.00000000  0.59447600  1.0
  Tl  Tl3  1  1.00000000  0.73791100  0.73791100  1.0
  Tl  Tl4  1  1.00000000  0.26208900  1.00000000  1.0
  Tl  Tl5  1  0.00000000  0.00000000  0.26208900  1.0
  Pd  Pd6  1  0.00000000  0.66666667  0.33333333  1.0
  Pd  Pd7  1  1.00000000  0.33333333  0.66666667  1.0
  Pd  Pd8  1  0.50000000  0.00000000  0.00000000  1.0
