# generated using pymatgen
data_NdZrNO2
_symmetry_space_group_name_H-M   'P 1'
_cell_length_a   5.76623400
_cell_length_b   5.95500500
_cell_length_c   8.22330565
_cell_angle_alpha   90.00000000
_cell_angle_beta   90.70053562
_cell_angle_gamma   90.00000000
_symmetry_Int_Tables_number   1
_chemical_formula_structural   NdZrNO2
_chemical_formula_sum   'Nd4 Zr4 N4 O8'
_cell_volume   282.35037128
_cell_formula_units_Z   4
loop_
 _symmetry_equiv_pos_site_id
 _symmetry_equiv_pos_as_xyz
  1  'x, y, z'
loop_
 _atom_site_type_symbol
 _atom_site_label
 _atom_site_symmetry_multiplicity
 _atom_site_fract_x
 _atom_site_fract_y
 _atom_site_fract_z
 _atom_site_occupancy
  Nd  Nd0  1  0.47877800  0.55107100  0.25805400  1.0
  Nd  Nd1  1  0.02122200  0.05107100  0.24194600  1.0
  Nd  Nd2  1  0.52122200  0.44892900  0.74194600  1.0
  Nd  Nd3  1  0.97877800  0.94892900  0.75805400  1.0
  Zr  Zr4  1  0.50000000  1.00000000  0.00000000  1.0
  Zr  Zr5  1  0.00000000  0.50000000  0.50000000  1.0
  Zr  Zr6  1  0.50000000  0.00000000  0.50000000  1.0
  Zr  Zr7  1  0.00000000  0.50000000  0.00000000  1.0
  N  N8  1  0.20379900  0.79557500  0.05848400  1.0
  N  N9  1  0.29620100  0.29557500  0.44151600  1.0
  N  N10  1  0.79620100  0.20442500  0.94151600  1.0
  N  N11  1  0.70379900  0.70442500  0.55848400  1.0
  O  O12  1  0.61620800  0.95883900  0.24994000  1.0
  O  O13  1  0.88379200  0.45883900  0.25006000  1.0
  O  O14  1  0.38379200  0.04116100  0.75006000  1.0
  O  O15  1  0.11620800  0.54116100  0.74994000  1.0
  O  O16  1  0.79342400  0.20707800  0.56646300  1.0
  O  O17  1  0.70657600  0.70707800  0.93353700  1.0
  O  O18  1  0.20657600  0.79292200  0.43353700  1.0
  O  O19  1  0.29342400  0.29292200  0.06646300  1.0
