# generated using pymatgen
data_Ni2P2(SeS)3
_symmetry_space_group_name_H-M   'P 1'
_cell_length_a   5.97154900
_cell_length_b   6.00990883
_cell_length_c   6.99547722
_cell_angle_alpha   82.04836425
_cell_angle_beta   73.38573918
_cell_angle_gamma   60.53034469
_symmetry_Int_Tables_number   1
_chemical_formula_structural   Ni2P2(SeS)3
_chemical_formula_sum   'Ni2 P2 Se3 S3'
_cell_volume   209.44830364
_cell_formula_units_Z   1
loop_
 _symmetry_equiv_pos_site_id
 _symmetry_equiv_pos_as_xyz
  1  'x, y, z'
loop_
 _atom_site_type_symbol
 _atom_site_label
 _atom_site_symmetry_multiplicity
 _atom_site_fract_x
 _atom_site_fract_y
 _atom_site_fract_z
 _atom_site_occupancy
  Ni  Ni0  1  0.33177400  0.32868000  0.00444700  1.0
  Ni  Ni1  1  0.66529300  0.67709000  0.00520400  1.0
  P  P2  1  0.95571900  0.98942900  0.16238400  1.0
  P  P3  1  0.04393700  0.99955700  0.83561500  1.0
  Se  Se4  1  0.57059900  0.35051600  0.24207600  1.0
  Se  Se5  1  0.07600300  0.35749700  0.76158800  1.0
  Se  Se6  1  0.43514600  0.64359000  0.76054500  1.0
  S  S7  1  0.27021000  0.99714900  0.22237800  1.0
  S  S8  1  0.72211700  0.00027900  0.78163300  1.0
  S  S9  1  0.92920200  0.65621400  0.22413100  1.0
