# generated using pymatgen
data_Ni6OF11
_symmetry_space_group_name_H-M   'P 1'
_cell_length_a   3.08926600
_cell_length_b   6.62550800
_cell_length_c   10.53723815
_cell_angle_alpha   108.32371593
_cell_angle_beta   90.00000000
_cell_angle_gamma   90.00000000
_symmetry_Int_Tables_number   1
_chemical_formula_structural   Ni6OF11
_chemical_formula_sum   'Ni6 O1 F11'
_cell_volume   204.73998750
_cell_formula_units_Z   1
loop_
 _symmetry_equiv_pos_site_id
 _symmetry_equiv_pos_as_xyz
  1  'x, y, z'
loop_
 _atom_site_type_symbol
 _atom_site_label
 _atom_site_symmetry_multiplicity
 _atom_site_fract_x
 _atom_site_fract_y
 _atom_site_fract_z
 _atom_site_occupancy
  Ni  Ni0  1  1.00000000  0.99652700  1.00000000  1.0
  Ni  Ni1  1  0.50000000  0.50784100  1.00000000  1.0
  Ni  Ni2  1  1.00000000  0.33237000  0.66590700  1.0
  Ni  Ni3  1  0.50000000  0.83369600  0.66686700  1.0
  Ni  Ni4  1  0.50000000  0.16682900  0.33313300  1.0
  Ni  Ni5  1  1.00000000  0.66646300  0.33409300  1.0
  O  O6  1  1.00000000  0.69349500  1.00000000  1.0
  F  F7  1  1.00000000  0.63666400  0.66680000  1.0
  F  F8  1  1.00000000  0.30268100  0.00000000  1.0
  F  F9  1  0.50000000  0.39850500  0.79680900  1.0
  F  F10  1  0.50000000  0.26765800  0.53534700  1.0
  F  F11  1  0.50000000  0.93430900  0.86797400  1.0
  F  F12  1  1.00000000  0.02943200  0.66603200  1.0
  F  F13  1  1.00000000  0.96986400  0.33320000  1.0
  F  F14  1  0.50000000  0.73231100  0.46465300  1.0
  F  F15  1  0.50000000  0.06633500  0.13202600  1.0
  F  F16  1  0.50000000  0.60169600  0.20319100  1.0
  F  F17  1  0.00000000  0.36340000  0.33396800  1.0
