# generated using pymatgen
data_NiPRh
_symmetry_space_group_name_H-M   'P 1'
_cell_length_a   3.54476000
_cell_length_b   5.96639600
_cell_length_c   5.96639643
_cell_angle_alpha   119.99999762
_cell_angle_beta   90.00000000
_cell_angle_gamma   90.00000000
_symmetry_Int_Tables_number   1
_chemical_formula_structural   NiPRh
_chemical_formula_sum   'Ni3 P3 Rh3'
_cell_volume   109.28024489
_cell_formula_units_Z   3
loop_
 _symmetry_equiv_pos_site_id
 _symmetry_equiv_pos_as_xyz
  1  'x, y, z'
loop_
 _atom_site_type_symbol
 _atom_site_label
 _atom_site_symmetry_multiplicity
 _atom_site_fract_x
 _atom_site_fract_y
 _atom_site_fract_z
 _atom_site_occupancy
  Ni  Ni0  1  1.00000000  0.25821000  0.00000000  1.0
  Ni  Ni1  1  1.00000000  0.74179000  0.74179000  1.0
  Ni  Ni2  1  0.00000000  0.00000000  0.25821000  1.0
  P  P3  1  1.00000000  0.33333333  0.66666667  1.0
  P  P4  1  1.00000000  0.66666667  0.33333333  1.0
  P  P5  1  0.50000000  0.00000000  0.00000000  1.0
  Rh  Rh6  1  0.50000000  0.60694700  0.00000000  1.0
  Rh  Rh7  1  0.50000000  0.39305300  0.39305300  1.0
  Rh  Rh8  1  0.50000000  1.00000000  0.60694700  1.0
