# generated using pymatgen
data_NiSnO3
_symmetry_space_group_name_H-M   'P 1'
_cell_length_a   5.31691587
_cell_length_b   5.31712131
_cell_length_c   5.62936281
_cell_angle_alpha   118.18003204
_cell_angle_beta   89.99688226
_cell_angle_gamma   119.99969968
_symmetry_Int_Tables_number   1
_chemical_formula_structural   NiSnO3
_chemical_formula_sum   'Ni2 Sn2 O6'
_cell_volume   115.53340879
_cell_formula_units_Z   2
loop_
 _symmetry_equiv_pos_site_id
 _symmetry_equiv_pos_as_xyz
  1  'x, y, z'
loop_
 _atom_site_type_symbol
 _atom_site_label
 _atom_site_symmetry_multiplicity
 _atom_site_fract_x
 _atom_site_fract_y
 _atom_site_fract_z
 _atom_site_occupancy
  Ni  Ni0  1  0.35346550  0.70694250  0.06040900  1.0
  Ni  Ni1  1  0.64653400  0.29305650  0.93959000  1.0
  O  O8  1  0.75276550  0.20227150  0.25181500  1.0
  O  O10  1  0.04953900  0.80233800  0.25183400  1.0
  O  O12  1  0.55049050  0.50092200  0.74815900  1.0
  O  O14  1  0.44950950  0.49907800  0.25184100  1.0
  O  O16  1  0.95046100  0.19766200  0.74816600  1.0
  O  O18  1  0.24723450  0.79772850  0.74818500  1.0
  Sn  Sn4  1  0.14618600  0.29241800  0.43859400  1.0
  Sn  Sn6  1  0.85381400  0.70758200  0.56140600  1.0
