# generated using pymatgen
data_NpGa4
_symmetry_space_group_name_H-M   'P 1'
_cell_length_a   4.36711400
_cell_length_b   6.27262200
_cell_length_c   7.91092518
_cell_angle_alpha   113.35663252
_cell_angle_beta   106.02268387
_cell_angle_gamma   90.00000000
_symmetry_Int_Tables_number   1
_chemical_formula_structural   NpGa4
_chemical_formula_sum   'Np2 Ga8'
_cell_volume   189.74327280
_cell_formula_units_Z   2
loop_
 _symmetry_equiv_pos_site_id
 _symmetry_equiv_pos_as_xyz
  1  'x, y, z'
loop_
 _atom_site_type_symbol
 _atom_site_label
 _atom_site_symmetry_multiplicity
 _atom_site_fract_x
 _atom_site_fract_y
 _atom_site_fract_z
 _atom_site_occupancy
  Np  Np0  1  0.11297200  0.36297200  0.22594400  1.0
  Np  Np1  1  0.88702800  0.63702800  0.77405600  1.0
  Ga  Ga2  1  0.50000000  1.00000000  0.00000000  1.0
  Ga  Ga3  1  0.50000000  0.50000000  0.00000000  1.0
  Ga  Ga4  1  0.89423200  0.14423200  0.78846400  1.0
  Ga  Ga5  1  0.10576800  0.85576800  0.21153600  1.0
  Ga  Ga6  1  0.30160200  0.83033300  0.60320400  1.0
  Ga  Ga7  1  0.69839800  0.16966700  0.39679600  1.0
  Ga  Ga8  1  0.69839800  0.72712900  0.39679600  1.0
  Ga  Ga9  1  0.30160200  0.27287100  0.60320400  1.0
