# generated using pymatgen
data_P2O5
_symmetry_space_group_name_H-M   'P 1'
_cell_length_a   4.93704053
_cell_length_b   4.93704053
_cell_length_c   8.74566280
_cell_angle_alpha   100.27232729
_cell_angle_beta   100.27232728
_cell_angle_gamma   111.60523143
_symmetry_Int_Tables_number   1
_chemical_formula_structural   P2O5
_chemical_formula_sum   'P4 O10'
_cell_volume   187.95289306
_cell_formula_units_Z   2
loop_
 _symmetry_equiv_pos_site_id
 _symmetry_equiv_pos_as_xyz
  1  'x, y, z'
loop_
 _atom_site_type_symbol
 _atom_site_label
 _atom_site_symmetry_multiplicity
 _atom_site_fract_x
 _atom_site_fract_y
 _atom_site_fract_z
 _atom_site_occupancy
  P  P0  1  0.60148400  0.75517900  0.15213600  1.0
  P  P1  1  0.60304400  0.44934800  0.84786500  1.0
  P  P2  1  0.00517900  0.35148400  0.65213500  1.0
  P  P3  1  0.69934800  0.35304400  0.34786400  1.0
  O  O4  1  0.27314600  0.60630900  0.11674600  1.0
  O  O5  1  0.48956300  0.15640000  0.88325400  1.0
  O  O6  1  0.85630900  0.02314600  0.61674600  1.0
  O  O7  1  0.40640000  0.23956300  0.38325400  1.0
  O  O8  1  0.99074500  0.49074500  0.50000000  1.0
  O  O9  1  0.74074500  0.74074500  0.00000000  1.0
  O  O10  1  0.78773000  0.62931300  0.26902500  1.0
  O  O11  1  0.36028800  0.51870500  0.73097500  1.0
  O  O12  1  0.87931300  0.53773000  0.76902500  1.0
  O  O13  1  0.76870500  0.11028800  0.23097500  1.0
