# generated using pymatgen
data_PaC2
_symmetry_space_group_name_H-M   'P 1'
_cell_length_a   3.61953400
_cell_length_b   3.98649662
_cell_length_c   3.61953400
_cell_angle_alpha   63.00104189
_cell_angle_beta   90.00000000
_cell_angle_gamma   116.99895811
_symmetry_Int_Tables_number   1
_chemical_formula_structural   PaC2
_chemical_formula_sum   'Pa1 C2'
_cell_volume   40.04210813
_cell_formula_units_Z   1
loop_
 _symmetry_equiv_pos_site_id
 _symmetry_equiv_pos_as_xyz
  1  'x, y, z'
loop_
 _atom_site_type_symbol
 _atom_site_label
 _atom_site_symmetry_multiplicity
 _atom_site_fract_x
 _atom_site_fract_y
 _atom_site_fract_z
 _atom_site_occupancy
  Pa  Pa0  1  0.00000000  0.00000000  0.00000000  1.0
  C  C1  1  0.61192100  0.22384200  0.38807900  1.0
  C  C2  1  0.38807900  0.77615800  0.61192100  1.0
