# generated using pymatgen
data_PbI2
_symmetry_space_group_name_H-M   'P 1'
_cell_length_a   4.66947532
_cell_length_b   4.66947532
_cell_length_c   29.88464382
_cell_angle_alpha   85.51920739
_cell_angle_beta   85.51920739
_cell_angle_gamma   60.00000959
_symmetry_Int_Tables_number   1
_chemical_formula_structural   PbI2
_chemical_formula_sum   'Pb4 I8'
_cell_volume   562.00548324
_cell_formula_units_Z   4
loop_
 _symmetry_equiv_pos_site_id
 _symmetry_equiv_pos_as_xyz
  1  'x, y, z'
loop_
 _atom_site_type_symbol
 _atom_site_label
 _atom_site_symmetry_multiplicity
 _atom_site_fract_x
 _atom_site_fract_y
 _atom_site_fract_z
 _atom_site_occupancy
  Pb  Pb0  1  0.08331400  0.08331400  0.75005800  1.0
  Pb  Pb1  1  0.00000000  0.00000000  0.00000000  1.0
  Pb  Pb2  1  0.91668600  0.91668600  0.24994200  1.0
  Pb  Pb3  1  0.50000000  0.50000000  0.50000000  1.0
  I  I4  1  0.35425900  0.35425900  0.93722300  1.0
  I  I5  1  0.18760300  0.18760300  0.43719100  1.0
  I  I6  1  0.81239700  0.81239700  0.56280900  1.0
  I  I7  1  0.27093900  0.27093900  0.18718300  1.0
  I  I8  1  0.64574100  0.64574100  0.06277700  1.0
  I  I9  1  0.72906100  0.72906100  0.81281700  1.0
  I  I10  1  0.56242000  0.56242000  0.31274000  1.0
  I  I11  1  0.43758000  0.43758000  0.68726000  1.0
