# generated using pymatgen
data_PbS2
_symmetry_space_group_name_H-M   'P 1'
_cell_length_a   5.80127221
_cell_length_b   5.80127221
_cell_length_c   5.80127221
_cell_angle_alpha   97.66272497
_cell_angle_beta   115.67903057
_cell_angle_gamma   115.67903057
_symmetry_Int_Tables_number   1
_chemical_formula_structural   PbS2
_chemical_formula_sum   'Pb2 S4'
_cell_volume   145.65973661
_cell_formula_units_Z   2
loop_
 _symmetry_equiv_pos_site_id
 _symmetry_equiv_pos_as_xyz
  1  'x, y, z'
loop_
 _atom_site_type_symbol
 _atom_site_label
 _atom_site_symmetry_multiplicity
 _atom_site_fract_x
 _atom_site_fract_y
 _atom_site_fract_z
 _atom_site_occupancy
  Pb  Pb0  1  1.00000000  0.75000000  0.75000000  1.0
  Pb  Pb1  1  1.00000000  0.25000000  0.25000000  1.0
  S  S2  1  0.26127700  0.88063900  0.38063900  1.0
  S  S3  1  0.73872300  0.11936100  0.61936100  1.0
  S  S4  1  0.50000000  0.38063800  0.11936200  1.0
  S  S5  1  0.50000000  0.61936200  0.88063800  1.0
