# generated using pymatgen
data_PdAuO2
_symmetry_space_group_name_H-M   'P 1'
_cell_length_a   3.24069609
_cell_length_b   3.24069609
_cell_length_c   6.45133679
_cell_angle_alpha   75.45355439
_cell_angle_beta   75.45355439
_cell_angle_gamma   59.99999815
_symmetry_Int_Tables_number   1
_chemical_formula_structural   PdAuO2
_chemical_formula_sum   'Pd1 Au1 O2'
_cell_volume   56.15367977
_cell_formula_units_Z   1
loop_
 _symmetry_equiv_pos_site_id
 _symmetry_equiv_pos_as_xyz
  1  'x, y, z'
loop_
 _atom_site_type_symbol
 _atom_site_label
 _atom_site_symmetry_multiplicity
 _atom_site_fract_x
 _atom_site_fract_y
 _atom_site_fract_z
 _atom_site_occupancy
  Pd  Pd0  1  0.50000000  0.50000000  0.50000000  1.0
  Au  Au1  1  0.00000000  0.00000000  0.00000000  1.0
  O  O2  1  0.11154600  0.11154600  0.66536200  1.0
  O  O3  1  0.88845400  0.88845400  0.33463800  1.0
