# generated using pymatgen
data_PmAg3
_symmetry_space_group_name_H-M   'P 1'
_cell_length_a   4.85769400
_cell_length_b   6.53307600
_cell_length_c   6.53307619
_cell_angle_alpha   119.99999904
_cell_angle_beta   90.00000000
_cell_angle_gamma   90.00000000
_symmetry_Int_Tables_number   1
_chemical_formula_structural   PmAg3
_chemical_formula_sum   'Pm2 Ag6'
_cell_volume   179.55447080
_cell_formula_units_Z   2
loop_
 _symmetry_equiv_pos_site_id
 _symmetry_equiv_pos_as_xyz
  1  'x, y, z'
loop_
 _atom_site_type_symbol
 _atom_site_label
 _atom_site_symmetry_multiplicity
 _atom_site_fract_x
 _atom_site_fract_y
 _atom_site_fract_z
 _atom_site_occupancy
  Pm  Pm0  1  0.75000000  0.33333333  0.66666667  1.0
  Pm  Pm1  1  0.25000000  0.66666667  0.33333333  1.0
  Ag  Ag2  1  0.25000000  0.15199400  0.30398800  1.0
  Ag  Ag3  1  0.25000000  0.69601200  0.84800600  1.0
  Ag  Ag4  1  0.25000000  0.15199400  0.84800600  1.0
  Ag  Ag5  1  0.75000000  0.84800600  0.69601200  1.0
  Ag  Ag6  1  0.75000000  0.30398800  0.15199400  1.0
  Ag  Ag7  1  0.75000000  0.84800600  0.15199400  1.0
