# generated using pymatgen
data_PPbSe3
_symmetry_space_group_name_H-M   'P 1'
_cell_length_a   7.12695800
_cell_length_b   7.81131200
_cell_length_c   9.85360175
_cell_angle_alpha   90.00000000
_cell_angle_beta   91.88828324
_cell_angle_gamma   90.00000000
_symmetry_Int_Tables_number   1
_chemical_formula_structural   PPbSe3
_chemical_formula_sum   'P4 Pb4 Se12'
_cell_volume   548.26092297
_cell_formula_units_Z   4
loop_
 _symmetry_equiv_pos_site_id
 _symmetry_equiv_pos_as_xyz
  1  'x, y, z'
loop_
 _atom_site_type_symbol
 _atom_site_label
 _atom_site_symmetry_multiplicity
 _atom_site_fract_x
 _atom_site_fract_y
 _atom_site_fract_z
 _atom_site_occupancy
  P  P0  1  0.55962800  0.60699800  0.93667300  1.0
  P  P1  1  0.05962800  0.89300200  0.43667300  1.0
  P  P2  1  0.44037200  0.39300200  0.06332700  1.0
  P  P3  1  0.94037200  0.10699800  0.56332700  1.0
  Pb  Pb4  1  0.46524800  0.11766500  0.74840200  1.0
  Pb  Pb5  1  0.03475200  0.61766500  0.75159800  1.0
  Pb  Pb6  1  0.53475200  0.88233500  0.25159800  1.0
  Pb  Pb7  1  0.96524800  0.38233500  0.24840200  1.0
  Se  Se8  1  0.68370900  0.20334700  0.45391500  1.0
  Se  Se9  1  0.66148400  0.19383500  0.05778600  1.0
  Se  Se10  1  0.16148400  0.30616500  0.55778600  1.0
  Se  Se11  1  0.81629100  0.70334700  0.04608500  1.0
  Se  Se12  1  0.61030300  0.49774700  0.73406100  1.0
  Se  Se13  1  0.11030300  0.00225300  0.23406100  1.0
  Se  Se14  1  0.33851600  0.80616500  0.94221400  1.0
  Se  Se15  1  0.31629100  0.79665300  0.54608500  1.0
  Se  Se16  1  0.38969700  0.50225300  0.26593900  1.0
  Se  Se17  1  0.83851600  0.69383500  0.44221400  1.0
  Se  Se18  1  0.88969700  0.99774700  0.76593900  1.0
  Se  Se19  1  0.18370900  0.29665300  0.95391500  1.0
