# generated using pymatgen
data_Pr(BRu)2
_symmetry_space_group_name_H-M   'P 1'
_cell_length_a   5.63936547
_cell_length_b   5.63936547
_cell_length_c   6.00004559
_cell_angle_alpha   108.39320428
_cell_angle_beta   108.39320427
_cell_angle_gamma   109.18170742
_symmetry_Int_Tables_number   1
_chemical_formula_structural   Pr(BRu)2
_chemical_formula_sum   'Pr2 B4 Ru4'
_cell_volume   151.15386436
_cell_formula_units_Z   2
loop_
 _symmetry_equiv_pos_site_id
 _symmetry_equiv_pos_as_xyz
  1  'x, y, z'
loop_
 _atom_site_type_symbol
 _atom_site_label
 _atom_site_symmetry_multiplicity
 _atom_site_fract_x
 _atom_site_fract_y
 _atom_site_fract_z
 _atom_site_occupancy
  Pr  Pr0  1  0.00000000  0.00000000  0.00000000  1.0
  Pr  Pr1  1  0.25000000  0.75000000  0.50000000  1.0
  B  B2  1  0.68147600  0.31852400  1.00000000  1.0
  B  B3  1  0.31852400  0.68147600  1.00000000  1.0
  B  B4  1  0.93147600  0.06852400  0.50000000  1.0
  B  B5  1  0.56852400  0.43147600  0.50000000  1.0
  Ru  Ru6  1  0.61345500  0.11345500  0.22691000  1.0
  Ru  Ru7  1  0.63654500  0.63654600  0.27309000  1.0
  Ru  Ru8  1  0.36345400  0.36345500  0.72690900  1.0
  Ru  Ru9  1  0.88654600  0.38654600  0.77309100  1.0
