# generated using pymatgen
data_Pr(HO)3
_symmetry_space_group_name_H-M   'P 1'
_cell_length_a   3.79575500
_cell_length_b   6.49826200
_cell_length_c   6.49826202
_cell_angle_alpha   119.99999988
_cell_angle_beta   90.00000000
_cell_angle_gamma   90.00000000
_symmetry_Int_Tables_number   1
_chemical_formula_structural   Pr(HO)3
_chemical_formula_sum   'Pr2 H6 O6'
_cell_volume   138.81079483
_cell_formula_units_Z   2
loop_
 _symmetry_equiv_pos_site_id
 _symmetry_equiv_pos_as_xyz
  1  'x, y, z'
loop_
 _atom_site_type_symbol
 _atom_site_label
 _atom_site_symmetry_multiplicity
 _atom_site_fract_x
 _atom_site_fract_y
 _atom_site_fract_z
 _atom_site_occupancy
  Pr  Pr0  1  0.75000000  0.66666667  0.33333333  1.0
  Pr  Pr1  1  0.25000000  0.33333333  0.66666667  1.0
  H  H2  1  0.75000000  0.13762200  0.86231400  1.0
  H  H3  1  0.75000000  0.13768600  0.27530800  1.0
  H  H4  1  0.75000000  0.72469200  0.86237800  1.0
  H  H5  1  0.25000000  0.86237800  0.13768600  1.0
  H  H6  1  0.25000000  0.86231400  0.72469200  1.0
  H  H7  1  0.25000000  0.27530800  0.13762200  1.0
  O  O8  1  0.75000000  0.08266700  0.69280400  1.0
  O  O9  1  0.75000000  0.30719600  0.38986300  1.0
  O  O10  1  0.75000000  0.61013700  0.91733300  1.0
  O  O11  1  0.25000000  0.91733300  0.30719600  1.0
  O  O12  1  0.25000000  0.69280400  0.61013700  1.0
  O  O13  1  0.25000000  0.38986300  0.08266700  1.0
