# generated using pymatgen
data_Pr2In3Cu
_symmetry_space_group_name_H-M   'P 1'
_cell_length_a   4.83137800
_cell_length_b   4.83137793
_cell_length_c   7.83548400
_cell_angle_alpha   90.00000000
_cell_angle_beta   90.00000000
_cell_angle_gamma   120.00000049
_symmetry_Int_Tables_number   1
_chemical_formula_structural   Pr2In3Cu
_chemical_formula_sum   'Pr2 In3 Cu1'
_cell_volume   158.39391245
_cell_formula_units_Z   1
loop_
 _symmetry_equiv_pos_site_id
 _symmetry_equiv_pos_as_xyz
  1  'x, y, z'
loop_
 _atom_site_type_symbol
 _atom_site_label
 _atom_site_symmetry_multiplicity
 _atom_site_fract_x
 _atom_site_fract_y
 _atom_site_fract_z
 _atom_site_occupancy
  Pr  Pr0  1  0.33333333  0.66666667  0.27427900  1.0
  Pr  Pr1  1  0.33333333  0.66666667  0.73667900  1.0
  In  In2  1  0.00000000  0.00000000  0.51663800  1.0
  In  In3  1  0.00000000  0.00000000  0.95060200  1.0
  In  In4  1  0.66666667  0.33333333  0.05955100  1.0
  Cu  Cu5  1  0.66666667  0.33333333  0.46225000  1.0
