# generated using pymatgen
data_Pr2MgPtO6
_symmetry_space_group_name_H-M   'P 1'
_cell_length_a   5.54786500
_cell_length_b   5.77003600
_cell_length_c   7.93203875
_cell_angle_alpha   90.00000000
_cell_angle_beta   89.80970086
_cell_angle_gamma   90.00000000
_symmetry_Int_Tables_number   1
_chemical_formula_structural   Pr2MgPtO6
_chemical_formula_sum   'Pr4 Mg2 Pt2 O12'
_cell_volume   253.91411214
_cell_formula_units_Z   2
loop_
 _symmetry_equiv_pos_site_id
 _symmetry_equiv_pos_as_xyz
  1  'x, y, z'
loop_
 _atom_site_type_symbol
 _atom_site_label
 _atom_site_symmetry_multiplicity
 _atom_site_fract_x
 _atom_site_fract_y
 _atom_site_fract_z
 _atom_site_occupancy
  Pr  Pr0  1  0.98456000  0.44109400  0.25047500  1.0
  Pr  Pr1  1  0.01544000  0.55890600  0.74952500  1.0
  Pr  Pr2  1  0.51544000  0.94109400  0.24952500  1.0
  Pr  Pr3  1  0.48456000  0.05890600  0.75047500  1.0
  Mg  Mg4  1  0.00000000  1.00000000  0.50000000  1.0
  Mg  Mg5  1  0.50000000  0.50000000  1.00000000  1.0
  Pt  Pt6  1  0.00000000  0.00000000  0.00000000  1.0
  Pt  Pt7  1  0.50000000  0.50000000  0.50000000  1.0
  O  O8  1  0.09564100  0.02972400  0.24806100  1.0
  O  O9  1  0.90435900  0.97027600  0.75193900  1.0
  O  O10  1  0.40435900  0.52972400  0.25193900  1.0
  O  O11  1  0.59564100  0.47027600  0.74806100  1.0
  O  O12  1  0.80241800  0.70623100  0.05150400  1.0
  O  O13  1  0.19758200  0.29376900  0.94849600  1.0
  O  O14  1  0.69758200  0.20623100  0.44849600  1.0
  O  O15  1  0.30241800  0.79376900  0.55150400  1.0
  O  O16  1  0.70293400  0.20211900  0.04971400  1.0
  O  O17  1  0.29706600  0.79788100  0.95028600  1.0
  O  O18  1  0.79706600  0.70211900  0.45028600  1.0
  O  O19  1  0.20293400  0.29788100  0.54971400  1.0
