# generated using pymatgen
data_Pr2Zn5Pb
_symmetry_space_group_name_H-M   'P 1'
_cell_length_a   4.52545400
_cell_length_b   8.67261315
_cell_length_c   9.18320900
_cell_angle_alpha   90.00000000
_cell_angle_beta   90.00000000
_cell_angle_gamma   105.12376064
_symmetry_Int_Tables_number   1
_chemical_formula_structural   Pr2Zn5Pb
_chemical_formula_sum   'Pr4 Zn10 Pb2'
_cell_volume   347.93484873
_cell_formula_units_Z   2
loop_
 _symmetry_equiv_pos_site_id
 _symmetry_equiv_pos_as_xyz
  1  'x, y, z'
loop_
 _atom_site_type_symbol
 _atom_site_label
 _atom_site_symmetry_multiplicity
 _atom_site_fract_x
 _atom_site_fract_y
 _atom_site_fract_z
 _atom_site_occupancy
  Pr  Pr0  1  0.79507200  0.59014400  0.75000000  1.0
  Pr  Pr1  1  0.20492800  0.40985600  0.25000000  1.0
  Pr  Pr2  1  0.00000000  0.00000000  0.50000000  1.0
  Pr  Pr3  1  0.00000000  0.00000000  0.00000000  1.0
  Zn  Zn4  1  0.18573100  0.37146200  0.60874200  1.0
  Zn  Zn5  1  0.81426900  0.62853800  0.39125800  1.0
  Zn  Zn6  1  0.18573100  0.37146200  0.89125800  1.0
  Zn  Zn7  1  0.81426900  0.62853800  0.10874200  1.0
  Zn  Zn8  1  0.34185800  0.68371600  0.51468800  1.0
  Zn  Zn9  1  0.65814200  0.31628400  0.48531200  1.0
  Zn  Zn10  1  0.34185800  0.68371600  0.98531200  1.0
  Zn  Zn11  1  0.65814200  0.31628400  0.01468800  1.0
  Zn  Zn12  1  0.60822300  0.21644600  0.75000000  1.0
  Zn  Zn13  1  0.39177700  0.78355400  0.25000000  1.0
  Pb  Pb14  1  0.44623200  0.89246400  0.75000000  1.0
  Pb  Pb15  1  0.55376800  0.10753600  0.25000000  1.0
