# generated using pymatgen
data_Pr3In
_symmetry_space_group_name_H-M   'P 1'
_cell_length_a   5.66105500
_cell_length_b   7.25307800
_cell_length_c   7.25307904
_cell_angle_alpha   60.00000472
_cell_angle_beta   90.00000000
_cell_angle_gamma   90.00000000
_symmetry_Int_Tables_number   1
_chemical_formula_structural   Pr3In
_chemical_formula_sum   'Pr6 In2'
_cell_volume   257.91273388
_cell_formula_units_Z   2
loop_
 _symmetry_equiv_pos_site_id
 _symmetry_equiv_pos_as_xyz
  1  'x, y, z'
loop_
 _atom_site_type_symbol
 _atom_site_label
 _atom_site_symmetry_multiplicity
 _atom_site_fract_x
 _atom_site_fract_y
 _atom_site_fract_z
 _atom_site_occupancy
  Pr  Pr0  1  0.25000000  0.82402300  0.35195400  1.0
  Pr  Pr1  1  0.25000000  0.82402300  0.82402300  1.0
  Pr  Pr2  1  0.25000000  0.35195400  0.82402300  1.0
  Pr  Pr3  1  0.75000000  0.17597700  0.64804600  1.0
  Pr  Pr4  1  0.75000000  0.17597700  0.17597700  1.0
  Pr  Pr5  1  0.75000000  0.64804600  0.17597700  1.0
  In  In6  1  0.75000000  0.66666667  0.66666667  1.0
  In  In7  1  0.25000000  0.33333333  0.33333333  1.0
