# generated using pymatgen
data_PrAlZn
_symmetry_space_group_name_H-M   'P 1'
_cell_length_a   4.63806000
_cell_length_b   5.82745399
_cell_length_c   5.94297274
_cell_angle_alpha   80.01955423
_cell_angle_beta   67.03219644
_cell_angle_gamma   66.54997147
_symmetry_Int_Tables_number   1
_chemical_formula_structural   PrAlZn
_chemical_formula_sum   'Pr2 Al2 Zn2'
_cell_volume   135.64753575
_cell_formula_units_Z   2
loop_
 _symmetry_equiv_pos_site_id
 _symmetry_equiv_pos_as_xyz
  1  'x, y, z'
loop_
 _atom_site_type_symbol
 _atom_site_label
 _atom_site_symmetry_multiplicity
 _atom_site_fract_x
 _atom_site_fract_y
 _atom_site_fract_z
 _atom_site_occupancy
  Pr  Pr0  1  0.53543400  0.71782900  0.21130300  1.0
  Pr  Pr1  1  0.46456600  0.28217100  0.78869700  1.0
  Al  Al2  1  0.16270000  0.28337600  0.39122400  1.0
  Al  Al3  1  0.83730000  0.71662400  0.60877600  1.0
  Zn  Zn4  1  0.83614400  0.10899300  0.21871900  1.0
  Zn  Zn5  1  0.16385600  0.89100700  0.78128100  1.0
