# generated using pymatgen
data_PrCdAu
_symmetry_space_group_name_H-M   'P 1'
_cell_length_a   4.04771100
_cell_length_b   8.00517000
_cell_length_c   8.00516950
_cell_angle_alpha   120.00000208
_cell_angle_beta   90.00000000
_cell_angle_gamma   90.00000000
_symmetry_Int_Tables_number   1
_chemical_formula_structural   PrCdAu
_chemical_formula_sum   'Pr3 Cd3 Au3'
_cell_volume   224.63695884
_cell_formula_units_Z   3
loop_
 _symmetry_equiv_pos_site_id
 _symmetry_equiv_pos_as_xyz
  1  'x, y, z'
loop_
 _atom_site_type_symbol
 _atom_site_label
 _atom_site_symmetry_multiplicity
 _atom_site_fract_x
 _atom_site_fract_y
 _atom_site_fract_z
 _atom_site_occupancy
  Pr  Pr0  1  1.00000000  0.40851700  0.40851700  1.0
  Pr  Pr1  1  1.00000000  0.00000000  0.59148300  1.0
  Pr  Pr2  1  1.00000000  0.59148300  0.00000000  1.0
  Cd  Cd3  1  0.50000000  0.74451200  0.74451200  1.0
  Cd  Cd4  1  0.50000000  0.00000000  0.25548800  1.0
  Cd  Cd5  1  0.50000000  0.25548800  0.00000000  1.0
  Au  Au6  1  0.50000000  0.66666667  0.33333333  1.0
  Au  Au7  1  0.50000000  0.33333333  0.66666667  1.0
  Au  Au8  1  0.00000000  0.00000000  0.00000000  1.0
