# generated using pymatgen
data_PrDy3
_symmetry_space_group_name_H-M   'P 1'
_cell_length_a   5.08450000
_cell_length_b   5.08450000
_cell_length_c   6.19964191
_cell_angle_alpha   114.20885565
_cell_angle_beta   114.20885565
_cell_angle_gamma   90.00000000
_symmetry_Int_Tables_number   1
_chemical_formula_structural   PrDy3
_chemical_formula_sum   'Pr1 Dy3'
_cell_volume   130.57119798
_cell_formula_units_Z   1
loop_
 _symmetry_equiv_pos_site_id
 _symmetry_equiv_pos_as_xyz
  1  'x, y, z'
loop_
 _atom_site_type_symbol
 _atom_site_label
 _atom_site_symmetry_multiplicity
 _atom_site_fract_x
 _atom_site_fract_y
 _atom_site_fract_z
 _atom_site_occupancy
  Pr  Pr0  1  0.00000000  0.00000000  0.00000000  1.0
  Dy  Dy1  1  0.75000000  0.25000000  0.50000000  1.0
  Dy  Dy2  1  0.25000000  0.75000000  0.50000000  1.0
  Dy  Dy3  1  0.50000000  0.50000000  0.00000000  1.0
