# generated using pymatgen
data_PrFeGe3
_symmetry_space_group_name_H-M   'P 1'
_cell_length_a   4.33636400
_cell_length_b   4.33636400
_cell_length_c   5.87017110
_cell_angle_alpha   111.67589601
_cell_angle_beta   111.67589602
_cell_angle_gamma   89.99999999
_symmetry_Int_Tables_number   1
_chemical_formula_structural   PrFeGe3
_chemical_formula_sum   'Pr1 Fe1 Ge3'
_cell_volume   94.12716495
_cell_formula_units_Z   1
loop_
 _symmetry_equiv_pos_site_id
 _symmetry_equiv_pos_as_xyz
  1  'x, y, z'
loop_
 _atom_site_type_symbol
 _atom_site_label
 _atom_site_symmetry_multiplicity
 _atom_site_fract_x
 _atom_site_fract_y
 _atom_site_fract_z
 _atom_site_occupancy
  Pr  Pr0  1  0.99896900  0.99896900  0.99793800  1.0
  Fe  Fe1  1  0.66500800  0.66500800  0.33001600  1.0
  Ge  Ge2  1  0.43807500  0.43807500  0.87615000  1.0
  Ge  Ge3  1  0.25447400  0.75447400  0.50894800  1.0
  Ge  Ge4  1  0.75447400  0.25447400  0.50894800  1.0
