# generated using pymatgen
data_PrInAu
_symmetry_space_group_name_H-M   'P 1'
_cell_length_a   4.28581600
_cell_length_b   7.83209000
_cell_length_c   7.83209008
_cell_angle_alpha   119.99999965
_cell_angle_beta   90.00000000
_cell_angle_gamma   90.00000000
_symmetry_Int_Tables_number   1
_chemical_formula_structural   PrInAu
_chemical_formula_sum   'Pr3 In3 Au3'
_cell_volume   227.67717711
_cell_formula_units_Z   3
loop_
 _symmetry_equiv_pos_site_id
 _symmetry_equiv_pos_as_xyz
  1  'x, y, z'
loop_
 _atom_site_type_symbol
 _atom_site_label
 _atom_site_symmetry_multiplicity
 _atom_site_fract_x
 _atom_site_fract_y
 _atom_site_fract_z
 _atom_site_occupancy
  Pr  Pr0  1  0.50000000  0.00000000  0.58607200  1.0
  Pr  Pr1  1  0.50000000  0.41392800  0.41392800  1.0
  Pr  Pr2  1  0.50000000  0.58607200  1.00000000  1.0
  In  In3  1  1.00000000  0.00000000  0.24904700  1.0
  In  In4  1  1.00000000  0.75095300  0.75095300  1.0
  In  In5  1  1.00000000  0.24904700  1.00000000  1.0
  Au  Au6  1  0.50000000  0.00000000  0.00000000  1.0
  Au  Au7  1  0.00000000  0.33333333  0.66666667  1.0
  Au  Au8  1  0.00000000  0.66666667  0.33333333  1.0
