# generated using pymatgen
data_PrMgTl
_symmetry_space_group_name_H-M   'P 1'
_cell_length_a   4.79735100
_cell_length_b   7.80166800
_cell_length_c   7.80166828
_cell_angle_alpha   119.99999882
_cell_angle_beta   90.00000000
_cell_angle_gamma   90.00000000
_symmetry_Int_Tables_number   1
_chemical_formula_structural   PrMgTl
_chemical_formula_sum   'Pr3 Mg3 Tl3'
_cell_volume   252.87568806
_cell_formula_units_Z   3
loop_
 _symmetry_equiv_pos_site_id
 _symmetry_equiv_pos_as_xyz
  1  'x, y, z'
loop_
 _atom_site_type_symbol
 _atom_site_label
 _atom_site_symmetry_multiplicity
 _atom_site_fract_x
 _atom_site_fract_y
 _atom_site_fract_z
 _atom_site_occupancy
  Pr  Pr0  1  0.00000000  0.42486600  0.42486600  1.0
  Pr  Pr1  1  0.00000000  1.00000000  0.57513400  1.0
  Pr  Pr2  1  0.00000000  0.57513400  0.00000000  1.0
  Mg  Mg3  1  0.50000000  0.75639200  0.75639200  1.0
  Mg  Mg4  1  0.50000000  0.00000000  0.24360800  1.0
  Mg  Mg5  1  0.50000000  0.24360800  0.00000000  1.0
  Tl  Tl6  1  0.50000000  0.66666667  0.33333333  1.0
  Tl  Tl7  1  0.50000000  0.33333333  0.66666667  1.0
  Tl  Tl8  1  0.00000000  0.00000000  0.00000000  1.0
