# generated using pymatgen
data_PrNbO4
_symmetry_space_group_name_H-M   'P 1'
_cell_length_a   5.33987422
_cell_length_b   5.47773648
_cell_length_c   6.92587851
_cell_angle_alpha   112.58690405
_cell_angle_beta   111.95251614
_cell_angle_gamma   91.69012543
_symmetry_Int_Tables_number   1
_chemical_formula_structural   PrNbO4
_chemical_formula_sum   'Pr2 Nb2 O8'
_cell_volume   169.90395070
_cell_formula_units_Z   2
loop_
 _symmetry_equiv_pos_site_id
 _symmetry_equiv_pos_as_xyz
  1  'x, y, z'
loop_
 _atom_site_type_symbol
 _atom_site_label
 _atom_site_symmetry_multiplicity
 _atom_site_fract_x
 _atom_site_fract_y
 _atom_site_fract_z
 _atom_site_occupancy
  Pr  Pr0  1  0.12354000  0.37354000  0.74708000  1.0
  Pr  Pr1  1  0.87646000  0.62646000  0.25292000  1.0
  Nb  Nb2  1  0.63360200  0.88360200  0.76720400  1.0
  Nb  Nb3  1  0.36639800  0.11639800  0.23279600  1.0
  O  O4  1  0.21185400  0.05298000  0.41742200  1.0
  O  O5  1  0.70556800  0.36444200  0.41742200  1.0
  O  O6  1  0.78814600  0.94702000  0.58257800  1.0
  O  O7  1  0.29443200  0.63555800  0.58257800  1.0
  O  O8  1  0.11142000  0.28355000  0.07211900  1.0
  O  O9  1  0.46069900  0.78856900  0.07211900  1.0
  O  O10  1  0.88858000  0.71645000  0.92788100  1.0
  O  O11  1  0.53930100  0.21143100  0.92788100  1.0
