# generated using pymatgen
data_PrNiGe3
_symmetry_space_group_name_H-M   'P 1'
_cell_length_a   4.17527000
_cell_length_b   4.20152300
_cell_length_c   11.18504253
_cell_angle_alpha   90.00000000
_cell_angle_beta   100.75706888
_cell_angle_gamma   90.00000000
_symmetry_Int_Tables_number   1
_chemical_formula_structural   PrNiGe3
_chemical_formula_sum   'Pr2 Ni2 Ge6'
_cell_volume   192.76554336
_cell_formula_units_Z   2
loop_
 _symmetry_equiv_pos_site_id
 _symmetry_equiv_pos_as_xyz
  1  'x, y, z'
loop_
 _atom_site_type_symbol
 _atom_site_label
 _atom_site_symmetry_multiplicity
 _atom_site_fract_x
 _atom_site_fract_y
 _atom_site_fract_z
 _atom_site_occupancy
  Pr  Pr0  1  0.66866600  0.50000000  0.33733200  1.0
  Pr  Pr1  1  0.33133400  0.50000000  0.66266800  1.0
  Ni  Ni2  1  0.89153000  1.00000000  0.78306000  1.0
  Ni  Ni3  1  0.10847000  1.00000000  0.21694000  1.0
  Ge  Ge4  1  0.44332700  1.00000000  0.88665400  1.0
  Ge  Ge5  1  0.55667300  1.00000000  0.11334600  1.0
  Ge  Ge6  1  0.05667500  0.50000000  0.11335000  1.0
  Ge  Ge7  1  0.94332500  0.50000000  0.88665000  1.0
  Ge  Ge8  1  0.21589600  1.00000000  0.43179200  1.0
  Ge  Ge9  1  0.78410400  1.00000000  0.56820800  1.0
