# generated using pymatgen
data_PrP5
_symmetry_space_group_name_H-M   'P 1'
_cell_length_a   5.08216900
_cell_length_b   5.49476255
_cell_length_c   9.63273000
_cell_angle_alpha   90.00000000
_cell_angle_beta   90.00000000
_cell_angle_gamma   102.01833236
_symmetry_Int_Tables_number   1
_chemical_formula_structural   PrP5
_chemical_formula_sum   'Pr2 P10'
_cell_volume   263.10085195
_cell_formula_units_Z   2
loop_
 _symmetry_equiv_pos_site_id
 _symmetry_equiv_pos_as_xyz
  1  'x, y, z'
loop_
 _atom_site_type_symbol
 _atom_site_label
 _atom_site_symmetry_multiplicity
 _atom_site_fract_x
 _atom_site_fract_y
 _atom_site_fract_z
 _atom_site_occupancy
  Pr  Pr0  1  0.00867000  0.34848900  0.75000000  1.0
  Pr  Pr1  1  0.99133000  0.65151100  0.25000000  1.0
  P  P2  1  0.29174100  0.90116800  0.75000000  1.0
  P  P3  1  0.70825900  0.09883200  0.25000000  1.0
  P  P4  1  0.61457600  0.95173900  0.59026400  1.0
  P  P5  1  0.38542400  0.04826100  0.09026400  1.0
  P  P6  1  0.38542400  0.04826100  0.40973600  1.0
  P  P7  1  0.61457600  0.95173900  0.90973600  1.0
  P  P8  1  0.70546200  0.59760000  0.53000300  1.0
  P  P9  1  0.29453800  0.40240000  0.03000300  1.0
  P  P10  1  0.29453800  0.40240000  0.46999700  1.0
  P  P11  1  0.70546200  0.59760000  0.96999700  1.0
