# generated using pymatgen
data_PrZnNi
_symmetry_space_group_name_H-M   'P 1'
_cell_length_a   3.89640900
_cell_length_b   7.22751400
_cell_length_c   7.22751423
_cell_angle_alpha   119.99999893
_cell_angle_beta   90.00000000
_cell_angle_gamma   90.00000000
_symmetry_Int_Tables_number   1
_chemical_formula_structural   PrZnNi
_chemical_formula_sum   'Pr3 Zn3 Ni3'
_cell_volume   176.26783525
_cell_formula_units_Z   3
loop_
 _symmetry_equiv_pos_site_id
 _symmetry_equiv_pos_as_xyz
  1  'x, y, z'
loop_
 _atom_site_type_symbol
 _atom_site_label
 _atom_site_symmetry_multiplicity
 _atom_site_fract_x
 _atom_site_fract_y
 _atom_site_fract_z
 _atom_site_occupancy
  Pr  Pr0  1  0.50000000  0.41304900  0.41304900  1.0
  Pr  Pr1  1  0.50000000  0.58695100  1.00000000  1.0
  Pr  Pr2  1  0.50000000  0.00000000  0.58695100  1.0
  Zn  Zn3  1  1.00000000  0.76692300  0.76692300  1.0
  Zn  Zn4  1  0.00000000  0.23307700  1.00000000  1.0
  Zn  Zn5  1  1.00000000  1.00000000  0.23307700  1.0
  Ni  Ni6  1  0.50000000  0.00000000  0.00000000  1.0
  Ni  Ni7  1  1.00000000  0.66666667  0.33333333  1.0
  Ni  Ni8  1  1.00000000  0.33333333  0.66666667  1.0
