# generated using pymatgen
data_PuCl3
_symmetry_space_group_name_H-M   'P 1'
_cell_length_a   4.24290300
_cell_length_b   7.45624200
_cell_length_c   7.45624201
_cell_angle_alpha   119.99999996
_cell_angle_beta   90.00000000
_cell_angle_gamma   90.00000000
_symmetry_Int_Tables_number   1
_chemical_formula_structural   PuCl3
_chemical_formula_sum   'Pu2 Cl6'
_cell_volume   204.28370494
_cell_formula_units_Z   2
loop_
 _symmetry_equiv_pos_site_id
 _symmetry_equiv_pos_as_xyz
  1  'x, y, z'
loop_
 _atom_site_type_symbol
 _atom_site_label
 _atom_site_symmetry_multiplicity
 _atom_site_fract_x
 _atom_site_fract_y
 _atom_site_fract_z
 _atom_site_occupancy
  Pu  Pu0  1  0.25000000  0.33333333  0.66666667  1.0
  Pu  Pu1  1  0.75000000  0.66666667  0.33333333  1.0
  Cl  Cl2  1  0.25000000  0.39158600  0.08640500  1.0
  Cl  Cl3  1  0.75000000  0.08640500  0.69481900  1.0
  Cl  Cl4  1  0.75000000  0.60841400  0.91359500  1.0
  Cl  Cl5  1  0.25000000  0.91359500  0.30518100  1.0
  Cl  Cl6  1  0.25000000  0.69481900  0.60841400  1.0
  Cl  Cl7  1  0.75000000  0.30518100  0.39158600  1.0
