# generated using pymatgen
data_Rb2As2Pd
_symmetry_space_group_name_H-M   'P 1'
_cell_length_a   6.29915500
_cell_length_b   6.85181000
_cell_length_c   8.19098622
_cell_angle_alpha   65.27565551
_cell_angle_beta   90.00000000
_cell_angle_gamma   90.00000000
_symmetry_Int_Tables_number   1
_chemical_formula_structural   Rb2As2Pd
_chemical_formula_sum   'Rb4 As4 Pd2'
_cell_volume   321.12027078
_cell_formula_units_Z   2
loop_
 _symmetry_equiv_pos_site_id
 _symmetry_equiv_pos_as_xyz
  1  'x, y, z'
loop_
 _atom_site_type_symbol
 _atom_site_label
 _atom_site_symmetry_multiplicity
 _atom_site_fract_x
 _atom_site_fract_y
 _atom_site_fract_z
 _atom_site_occupancy
  Rb  Rb0  1  0.75000000  0.79342100  0.41315800  1.0
  Rb  Rb1  1  0.25000000  0.20657900  0.58684200  1.0
  Rb  Rb2  1  0.75000000  0.41657100  0.16685800  1.0
  Rb  Rb3  1  0.25000000  0.58342900  0.83314200  1.0
  As  As4  1  0.75000000  0.28358600  0.78692900  1.0
  As  As5  1  0.25000000  0.71641400  0.21307100  1.0
  As  As6  1  0.75000000  0.92948500  0.78692900  1.0
  As  As7  1  0.25000000  0.07051500  0.21307100  1.0
  Pd  Pd8  1  0.00000000  0.00000000  0.00000000  1.0
  Pd  Pd9  1  0.50000000  0.00000000  0.00000000  1.0
