# generated using pymatgen
data_Rb2Co3S4
_symmetry_space_group_name_H-M   'P 1'
_cell_length_a   5.37913200
_cell_length_b   8.83904046
_cell_length_c   8.83904046
_cell_angle_alpha   75.24654720
_cell_angle_beta   72.28499283
_cell_angle_gamma   72.28499282
_symmetry_Int_Tables_number   1
_chemical_formula_structural   Rb2Co3S4
_chemical_formula_sum   'Rb4 Co6 S8'
_cell_volume   375.22073718
_cell_formula_units_Z   2
loop_
 _symmetry_equiv_pos_site_id
 _symmetry_equiv_pos_as_xyz
  1  'x, y, z'
loop_
 _atom_site_type_symbol
 _atom_site_label
 _atom_site_symmetry_multiplicity
 _atom_site_fract_x
 _atom_site_fract_y
 _atom_site_fract_z
 _atom_site_occupancy
  Rb  Rb0  1  0.74139400  0.62371600  0.37628500  1.0
  Rb  Rb1  1  0.25860600  0.37628400  0.62371500  1.0
  Rb  Rb2  1  0.75860500  0.12371500  0.87628500  1.0
  Rb  Rb3  1  0.24139500  0.87628500  0.12371500  1.0
  Co  Co4  1  0.25000000  0.25000000  0.25000000  1.0
  Co  Co5  1  0.75000000  0.75000000  0.75000000  1.0
  Co  Co6  1  0.75000000  0.50315800  0.99684200  1.0
  Co  Co7  1  0.75000000  0.99684200  0.50315800  1.0
  Co  Co8  1  0.25000000  0.49684200  0.00315800  1.0
  Co  Co9  1  0.25000000  0.00315800  0.49684200  1.0
  S  S10  1  0.91480300  0.70984200  0.96061400  1.0
  S  S11  1  0.41474000  0.96061400  0.70984300  1.0
  S  S12  1  0.58519700  0.53938700  0.79015700  1.0
  S  S13  1  0.08526000  0.79015700  0.53938600  1.0
  S  S14  1  0.08519700  0.29015800  0.03938600  1.0
  S  S15  1  0.58526000  0.03938600  0.29015700  1.0
  S  S16  1  0.41480300  0.46061300  0.20984300  1.0
  S  S17  1  0.91474000  0.20984300  0.46061400  1.0
