# generated using pymatgen
data_Rb2LiVS4
_symmetry_space_group_name_H-M   'P 1'
_cell_length_a   5.89337400
_cell_length_b   7.33931235
_cell_length_c   12.20133170
_cell_angle_alpha   84.43569506
_cell_angle_beta   76.02459508
_cell_angle_gamma   66.32841559
_symmetry_Int_Tables_number   1
_chemical_formula_structural   Rb2LiVS4
_chemical_formula_sum   'Rb4 Li2 V2 S8'
_cell_volume   469.03702022
_cell_formula_units_Z   2
loop_
 _symmetry_equiv_pos_site_id
 _symmetry_equiv_pos_as_xyz
  1  'x, y, z'
loop_
 _atom_site_type_symbol
 _atom_site_label
 _atom_site_symmetry_multiplicity
 _atom_site_fract_x
 _atom_site_fract_y
 _atom_site_fract_z
 _atom_site_occupancy
  Rb  Rb0  1  0.67831900  1.00000000  0.64336200  1.0
  Rb  Rb1  1  0.42831900  0.50000000  0.14336200  1.0
  Rb  Rb2  1  0.07168100  0.50000000  0.85663800  1.0
  Rb  Rb3  1  0.32168100  1.00000000  0.35663800  1.0
  Li  Li4  1  0.00000000  0.00000000  0.00000000  1.0
  Li  Li5  1  0.75000000  0.50000000  0.50000000  1.0
  V  V6  1  0.50000000  1.00000000  1.00000000  1.0
  V  V7  1  0.25000000  0.50000000  0.50000000  1.0
  S  S8  1  0.99486400  0.68615000  0.39578600  1.0
  S  S9  1  0.75513600  0.81385000  0.10421400  1.0
  S  S10  1  0.60934900  0.31385100  0.39578600  1.0
  S  S11  1  0.43101500  0.81385000  0.89578500  1.0
  S  S12  1  0.14065100  0.18614900  0.10421400  1.0
  S  S13  1  0.67320100  0.18614900  0.89578500  1.0
  S  S14  1  0.31898500  0.68615000  0.60421500  1.0
  S  S15  1  0.07679900  0.31385100  0.60421500  1.0
