# generated using pymatgen
data_Rb2Mo(OF2)2
_symmetry_space_group_name_H-M   'P 1'
_cell_length_a   6.16323800
_cell_length_b   7.20446600
_cell_length_c   7.96043503
_cell_angle_alpha   90.00000000
_cell_angle_beta   112.77522356
_cell_angle_gamma   90.00000000
_symmetry_Int_Tables_number   1
_chemical_formula_structural   Rb2Mo(OF2)2
_chemical_formula_sum   'Rb4 Mo2 O4 F8'
_cell_volume   325.90640055
_cell_formula_units_Z   2
loop_
 _symmetry_equiv_pos_site_id
 _symmetry_equiv_pos_as_xyz
  1  'x, y, z'
loop_
 _atom_site_type_symbol
 _atom_site_label
 _atom_site_symmetry_multiplicity
 _atom_site_fract_x
 _atom_site_fract_y
 _atom_site_fract_z
 _atom_site_occupancy
  Rb  Rb0  1  0.44132700  0.25000000  0.88871800  1.0
  Rb  Rb1  1  0.55260900  0.75000000  0.11128200  1.0
  Rb  Rb2  1  0.75117700  0.25000000  0.53042200  1.0
  Rb  Rb3  1  0.22075500  0.75000000  0.46957800  1.0
  Mo  Mo4  1  0.11571000  0.25000000  0.22675000  1.0
  Mo  Mo5  1  0.88896000  0.75000000  0.77325000  1.0
  O  O6  1  0.06712700  0.93769800  0.76582400  1.0
  O  O7  1  0.30130300  0.06230200  0.23417600  1.0
  O  O8  1  0.30130300  0.43769800  0.23417600  1.0
  O  O9  1  0.06712700  0.56230200  0.76582400  1.0
  F  F10  1  0.93971800  0.25000000  0.96564800  1.0
  F  F11  1  0.97407000  0.75000000  0.03435200  1.0
  F  F12  1  0.85768400  0.07079700  0.24054100  1.0
  F  F13  1  0.61714300  0.92920300  0.75945900  1.0
  F  F14  1  0.61714300  0.57079700  0.75945900  1.0
  F  F15  1  0.85768400  0.42920300  0.24054100  1.0
  F  F16  1  0.21146100  0.25000000  0.49676300  1.0
  F  F17  1  0.71469800  0.75000000  0.50323700  1.0
