# generated using pymatgen
data_Rb2Mn3Se4
_symmetry_space_group_name_H-M   'P 1'
_cell_length_a   6.26196800
_cell_length_b   9.85437861
_cell_length_c   9.85437861
_cell_angle_alpha   74.80663860
_cell_angle_beta   71.47459228
_cell_angle_gamma   71.47459228
_symmetry_Int_Tables_number   1
_chemical_formula_structural   Rb2Mn3Se4
_chemical_formula_sum   'Rb4 Mn6 Se8'
_cell_volume   537.85388312
_cell_formula_units_Z   2
loop_
 _symmetry_equiv_pos_site_id
 _symmetry_equiv_pos_as_xyz
  1  'x, y, z'
loop_
 _atom_site_type_symbol
 _atom_site_label
 _atom_site_symmetry_multiplicity
 _atom_site_fract_x
 _atom_site_fract_y
 _atom_site_fract_z
 _atom_site_occupancy
  Rb  Rb0  1  0.76315500  0.12216200  0.87783800  1.0
  Rb  Rb1  1  0.26315500  0.37783800  0.62216200  1.0
  Rb  Rb2  1  0.73684500  0.62216200  0.37783800  1.0
  Rb  Rb3  1  0.23684500  0.87783800  0.12216200  1.0
  Mn  Mn4  1  0.75000000  0.02174700  0.47825300  1.0
  Mn  Mn5  1  0.75000000  0.47825300  0.02174700  1.0
  Mn  Mn6  1  0.25000000  0.97825300  0.52174700  1.0
  Mn  Mn7  1  0.25000000  0.25000000  0.25000000  1.0
  Mn  Mn8  1  0.75000000  0.75000000  0.75000000  1.0
  Mn  Mn9  1  0.25000000  0.52174700  0.97825300  1.0
  Se  Se10  1  0.63191900  0.51407800  0.78014900  1.0
  Se  Se11  1  0.42614600  0.98592200  0.71985100  1.0
  Se  Se12  1  0.86808100  0.71985100  0.98592200  1.0
  Se  Se13  1  0.07385400  0.78014900  0.51407800  1.0
  Se  Se14  1  0.36808100  0.48592200  0.21985100  1.0
  Se  Se15  1  0.57385400  0.01407800  0.28014900  1.0
  Se  Se16  1  0.13191900  0.28014900  0.01407800  1.0
  Se  Se17  1  0.92614600  0.21985100  0.48592200  1.0
