# generated using pymatgen
data_Rb3HoO3
_symmetry_space_group_name_H-M   'P 1'
_cell_length_a   7.29234557
_cell_length_b   7.33963292
_cell_length_c   7.33963292
_cell_angle_alpha   63.56518984
_cell_angle_beta   85.18682829
_cell_angle_gamma   94.81317171
_symmetry_Int_Tables_number   1
_chemical_formula_structural   Rb3HoO3
_chemical_formula_sum   'Rb6 Ho2 O6'
_cell_volume   347.27300128
_cell_formula_units_Z   2
loop_
 _symmetry_equiv_pos_site_id
 _symmetry_equiv_pos_as_xyz
  1  'x, y, z'
loop_
 _atom_site_type_symbol
 _atom_site_label
 _atom_site_symmetry_multiplicity
 _atom_site_fract_x
 _atom_site_fract_y
 _atom_site_fract_z
 _atom_site_occupancy
  Rb  Rb0  1  0.64303100  0.36294000  0.63706000  1.0
  Rb  Rb1  1  0.50000000  0.20605500  0.20605500  1.0
  Rb  Rb2  1  0.50000000  0.79394500  0.79394500  1.0
  Rb  Rb3  1  1.00000000  0.73946100  0.73946100  1.0
  Rb  Rb4  1  1.00000000  0.26053900  0.26053900  1.0
  Rb  Rb5  1  0.35696900  0.63706000  0.36294000  1.0
  Ho  Ho6  1  0.14884700  0.17693100  0.82306900  1.0
  Ho  Ho7  1  0.85115300  0.82306900  0.17693100  1.0
  O  O8  1  0.84572300  0.10221300  0.89778700  1.0
  O  O9  1  0.26752300  0.44480000  0.83135300  1.0
  O  O10  1  0.26752300  0.16864700  0.55520000  1.0
  O  O11  1  0.73247700  0.83135300  0.44480000  1.0
  O  O12  1  0.73247700  0.55520000  0.16864700  1.0
  O  O13  1  0.15427700  0.89778700  0.10221300  1.0
