# generated using pymatgen
data_Rb3InO3
_symmetry_space_group_name_H-M   'P 1'
_cell_length_a   7.09733260
_cell_length_b   7.18765747
_cell_length_c   7.18765747
_cell_angle_alpha   65.13529321
_cell_angle_beta   84.20502301
_cell_angle_gamma   95.79497699
_symmetry_Int_Tables_number   1
_chemical_formula_structural   Rb3InO3
_chemical_formula_sum   'Rb6 In2 O6'
_cell_volume   326.77194018
_cell_formula_units_Z   2
loop_
 _symmetry_equiv_pos_site_id
 _symmetry_equiv_pos_as_xyz
  1  'x, y, z'
loop_
 _atom_site_type_symbol
 _atom_site_label
 _atom_site_symmetry_multiplicity
 _atom_site_fract_x
 _atom_site_fract_y
 _atom_site_fract_z
 _atom_site_occupancy
  Rb  Rb0  1  0.64917700  0.36946600  0.63053400  1.0
  Rb  Rb1  1  0.50000000  0.19420600  0.19420600  1.0
  Rb  Rb2  1  0.50000000  0.80579400  0.80579400  1.0
  Rb  Rb3  1  0.00000000  0.74001400  0.74001400  1.0
  Rb  Rb4  1  0.00000000  0.25998600  0.25998600  1.0
  Rb  Rb5  1  0.35082300  0.63053400  0.36946600  1.0
  In  In6  1  0.14768800  0.17547600  0.82452400  1.0
  In  In7  1  0.85231200  0.82452400  0.17547600  1.0
  O  O8  1  0.84005300  0.10024300  0.89975700  1.0
  O  O9  1  0.27040600  0.44151500  0.84133700  1.0
  O  O10  1  0.27040600  0.15866300  0.55848500  1.0
  O  O11  1  0.72959400  0.55848500  0.15866300  1.0
  O  O12  1  0.72959400  0.84133700  0.44151500  1.0
  O  O13  1  0.15994700  0.89975700  0.10024300  1.0
