# generated using pymatgen
data_Rb3I2Br
_symmetry_space_group_name_H-M   'P 1'
_cell_length_a   5.17357600
_cell_length_b   7.36631800
_cell_length_c   8.99674233
_cell_angle_alpha   114.16640026
_cell_angle_beta   106.70983700
_cell_angle_gamma   90.00000000
_symmetry_Int_Tables_number   1
_chemical_formula_structural   Rb3I2Br
_chemical_formula_sum   'Rb3 I2 Br1'
_cell_volume   296.87884758
_cell_formula_units_Z   1
loop_
 _symmetry_equiv_pos_site_id
 _symmetry_equiv_pos_as_xyz
  1  'x, y, z'
loop_
 _atom_site_type_symbol
 _atom_site_label
 _atom_site_symmetry_multiplicity
 _atom_site_fract_x
 _atom_site_fract_y
 _atom_site_fract_z
 _atom_site_occupancy
  Rb  Rb0  1  0.65428300  0.65428300  0.30856600  1.0
  Rb  Rb1  1  0.00000000  0.00000000  0.00000000  1.0
  Rb  Rb2  1  0.34571700  0.34571700  0.69143400  1.0
  I  I3  1  0.33115100  0.83115100  0.66230200  1.0
  I  I4  1  0.66884900  0.16884900  0.33769800  1.0
  Br  Br5  1  0.00000000  0.50000000  0.00000000  1.0
