# generated using pymatgen
data_RbCrCoF6
_symmetry_space_group_name_H-M   'P 1'
_cell_length_a   7.36075800
_cell_length_b   7.40317838
_cell_length_c   7.40147400
_cell_angle_alpha   119.99238461
_cell_angle_beta   89.99999999
_cell_angle_gamma   119.81063273
_symmetry_Int_Tables_number   1
_chemical_formula_structural   RbCrCoF6
_chemical_formula_sum   'Rb2 Cr2 Co2 F12'
_cell_volume   286.04267676
_cell_formula_units_Z   2
loop_
 _symmetry_equiv_pos_site_id
 _symmetry_equiv_pos_as_xyz
  1  'x, y, z'
loop_
 _atom_site_type_symbol
 _atom_site_label
 _atom_site_symmetry_multiplicity
 _atom_site_fract_x
 _atom_site_fract_y
 _atom_site_fract_z
 _atom_site_occupancy
  Rb  Rb0  1  0.87864800  0.75729600  0.62864800  1.0
  Rb  Rb1  1  0.12135200  0.24270400  0.37135200  1.0
  Cr  Cr2  1  0.50000000  0.00000000  0.50000000  1.0
  Cr  Cr3  1  0.50000000  0.00000000  1.00000000  1.0
  Co  Co4  1  0.00000000  0.50000000  1.00000000  1.0
  Co  Co5  1  0.50000000  0.50000000  0.00000000  1.0
  F  F6  1  0.43451500  0.86903000  0.68451500  1.0
  F  F7  1  0.82737000  0.65474000  0.07737000  1.0
  F  F8  1  0.43123200  0.24607900  0.07825200  1.0
  F  F9  1  0.81484600  0.24607700  0.66782600  1.0
  F  F10  1  0.81484700  0.24607800  0.07825100  1.0
  F  F11  1  0.43123100  0.24607800  0.66782700  1.0
  F  F12  1  0.56548500  0.13097000  0.31548500  1.0
  F  F13  1  0.17263000  0.34526000  0.92263000  1.0
  F  F14  1  0.56876800  0.75392100  0.92174800  1.0
  F  F15  1  0.18515400  0.75392300  0.33217400  1.0
  F  F16  1  0.18515300  0.75392200  0.92174900  1.0
  F  F17  1  0.56876900  0.75392200  0.33217300  1.0
