# generated using pymatgen
data_RbFeS2
_symmetry_space_group_name_H-M   'P 1'
_cell_length_a   5.44141432
_cell_length_b   6.89876052
_cell_length_c   6.89876052
_cell_angle_alpha   116.30911357
_cell_angle_beta   101.14635103
_cell_angle_gamma   101.14635103
_symmetry_Int_Tables_number   1
_chemical_formula_structural   RbFeS2
_chemical_formula_sum   'Rb2 Fe2 S4'
_cell_volume   216.00446385
_cell_formula_units_Z   2
loop_
 _symmetry_equiv_pos_site_id
 _symmetry_equiv_pos_as_xyz
  1  'x, y, z'
loop_
 _atom_site_type_symbol
 _atom_site_label
 _atom_site_symmetry_multiplicity
 _atom_site_fract_x
 _atom_site_fract_y
 _atom_site_fract_z
 _atom_site_occupancy
  Rb  Rb0  1  0.25000000  0.35403400  0.64596600  1.0
  Rb  Rb1  1  0.75000000  0.64596600  0.35403400  1.0
  Fe  Fe2  1  0.75000000  0.00249500  0.99750500  1.0
  Fe  Fe3  1  0.25000000  0.99750500  0.00249500  1.0
  S  S4  1  0.59520100  0.08799200  0.28474800  1.0
  S  S5  1  0.90479900  0.71525200  0.91200800  1.0
  S  S6  1  0.09520100  0.28474800  0.08799200  1.0
  S  S7  1  0.40479900  0.91200800  0.71525200  1.0
