# generated using pymatgen
data_RbLaMnWO6
_symmetry_space_group_name_H-M   'P 1'
_cell_length_a   5.76768884
_cell_length_b   5.78833100
_cell_length_c   8.35964225
_cell_angle_alpha   89.99968396
_cell_angle_beta   90.51922948
_cell_angle_gamma   89.99982299
_symmetry_Int_Tables_number   1
_chemical_formula_structural   RbLaMnWO6
_chemical_formula_sum   'Rb2 La2 Mn2 W2 O12'
_cell_volume   279.07763849
_cell_formula_units_Z   2
loop_
 _symmetry_equiv_pos_site_id
 _symmetry_equiv_pos_as_xyz
  1  'x, y, z'
loop_
 _atom_site_type_symbol
 _atom_site_label
 _atom_site_symmetry_multiplicity
 _atom_site_fract_x
 _atom_site_fract_y
 _atom_site_fract_z
 _atom_site_occupancy
  Rb  Rb0  1  0.75680200  0.76200600  0.99925400  1.0
  Rb  Rb1  1  0.24318700  0.26200900  0.00073400  1.0
  La  La2  1  0.75456800  0.80330100  0.50015200  1.0
  La  La3  1  0.24543400  0.30330600  0.49985300  1.0
  Mn  Mn4  1  0.74549200  0.27441800  0.24710600  1.0
  Mn  Mn5  1  0.25453500  0.77441700  0.75288200  1.0
  W  W6  1  0.24279500  0.76907200  0.25546300  1.0
  W  W7  1  0.75720700  0.26906900  0.74453700  1.0
  O  O8  1  0.46327100  0.02204800  0.30816900  1.0
  O  O9  1  0.53671100  0.52202900  0.69183500  1.0
  O  O10  1  0.49525200  0.05317300  0.69149600  1.0
  O  O11  1  0.50475200  0.55317200  0.30851000  1.0
  O  O12  1  0.01378500  0.47992800  0.74367900  1.0
  O  O13  1  0.98619900  0.97990400  0.25632200  1.0
  O  O14  1  0.04037100  0.50125700  0.25334100  1.0
  O  O15  1  0.95964400  0.00126800  0.74666200  1.0
  O  O16  1  0.18012000  0.74798800  0.49642200  1.0
  O  O17  1  0.81988000  0.24797700  0.50357900  1.0
  O  O18  1  0.28084700  0.77022400  0.03242800  1.0
  O  O19  1  0.71914800  0.27021800  0.96757400  1.0
