# generated using pymatgen
data_RbMgNiF6
_symmetry_space_group_name_H-M   'P 1'
_cell_length_a   7.23285800
_cell_length_b   7.28873255
_cell_length_c   7.28873255
_cell_angle_alpha   60.75418484
_cell_angle_beta   60.25326294
_cell_angle_gamma   60.25326294
_symmetry_Int_Tables_number   1
_chemical_formula_structural   RbMgNiF6
_chemical_formula_sum   'Rb2 Mg2 Ni2 F12'
_cell_volume   274.27380573
_cell_formula_units_Z   2
loop_
 _symmetry_equiv_pos_site_id
 _symmetry_equiv_pos_as_xyz
  1  'x, y, z'
loop_
 _atom_site_type_symbol
 _atom_site_label
 _atom_site_symmetry_multiplicity
 _atom_site_fract_x
 _atom_site_fract_y
 _atom_site_fract_z
 _atom_site_occupancy
  Rb  Rb0  1  0.62229800  0.62770200  0.12770200  1.0
  Rb  Rb1  1  0.37770200  0.37229800  0.87229800  1.0
  Mg  Mg2  1  0.50000000  0.00000000  0.50000000  1.0
  Mg  Mg3  1  0.00000000  1.00000000  0.50000000  1.0
  Ni  Ni4  1  0.00000000  0.50000000  0.50000000  1.0
  Ni  Ni5  1  0.00000000  0.00000000  0.00000000  1.0
  F  F6  1  0.06963400  0.68036600  0.18036600  1.0
  F  F7  1  0.67778100  0.07221900  0.57221900  1.0
  F  F8  1  0.06601700  0.07145400  0.17253400  1.0
  F  F9  1  0.68999500  0.67253400  0.57145400  1.0
  F  F10  1  0.68999500  0.07145400  0.17253400  1.0
  F  F11  1  0.06601700  0.67253400  0.57145400  1.0
  F  F12  1  0.93036600  0.31963400  0.81963400  1.0
  F  F13  1  0.32221900  0.92778100  0.42778100  1.0
  F  F14  1  0.93398300  0.92854600  0.82746600  1.0
  F  F15  1  0.31000500  0.32746600  0.42854600  1.0
  F  F16  1  0.31000500  0.92854600  0.82746600  1.0
  F  F17  1  0.93398300  0.32746600  0.42854600  1.0
