# generated using pymatgen
data_RbNbTeO6
_symmetry_space_group_name_H-M   'P 1'
_cell_length_a   7.31591200
_cell_length_b   7.38500786
_cell_length_c   7.38500786
_cell_angle_alpha   60.50706337
_cell_angle_beta   60.30902210
_cell_angle_gamma   60.30902210
_symmetry_Int_Tables_number   1
_chemical_formula_structural   RbNbTeO6
_chemical_formula_sum   'Rb2 Nb2 Te2 O12'
_cell_volume   284.52498487
_cell_formula_units_Z   2
loop_
 _symmetry_equiv_pos_site_id
 _symmetry_equiv_pos_as_xyz
  1  'x, y, z'
loop_
 _atom_site_type_symbol
 _atom_site_label
 _atom_site_symmetry_multiplicity
 _atom_site_fract_x
 _atom_site_fract_y
 _atom_site_fract_z
 _atom_site_occupancy
  Rb  Rb0  1  0.87456500  0.87543500  0.37543500  1.0
  Rb  Rb1  1  0.12543500  0.12456500  0.62456500  1.0
  Nb  Nb2  1  0.50000000  0.50000000  0.50000000  1.0
  Nb  Nb3  1  0.50000000  0.00000000  0.00000000  1.0
  Te  Te4  1  1.00000000  0.50000000  0.00000000  1.0
  Te  Te5  1  0.50000000  0.50000000  0.00000000  1.0
  O  O6  1  0.82232000  0.42768000  0.92768000  1.0
  O  O7  1  0.43655700  0.81344300  0.31344300  1.0
  O  O8  1  0.43172400  0.80910700  0.93524600  1.0
  O  O9  1  0.82392300  0.43524600  0.30910700  1.0
  O  O10  1  0.43172300  0.43524700  0.30910700  1.0
  O  O11  1  0.82392400  0.80910600  0.93524600  1.0
  O  O12  1  0.17768000  0.57232000  0.07232000  1.0
  O  O13  1  0.56344300  0.18655700  0.68655700  1.0
  O  O14  1  0.56827600  0.19089300  0.06475400  1.0
  O  O15  1  0.17607700  0.56475400  0.69089300  1.0
  O  O16  1  0.56827700  0.56475300  0.69089300  1.0
  O  O17  1  0.17607600  0.19089400  0.06475400  1.0
