# generated using pymatgen
data_RbNdSe2
_symmetry_space_group_name_H-M   'P 1'
_cell_length_a   4.38379857
_cell_length_b   4.38379857
_cell_length_c   8.41622674
_cell_angle_alpha   74.90398551
_cell_angle_beta   74.90398551
_cell_angle_gamma   59.99999140
_symmetry_Int_Tables_number   1
_chemical_formula_structural   RbNdSe2
_chemical_formula_sum   'Rb1 Nd1 Se2'
_cell_volume   133.58744422
_cell_formula_units_Z   1
loop_
 _symmetry_equiv_pos_site_id
 _symmetry_equiv_pos_as_xyz
  1  'x, y, z'
loop_
 _atom_site_type_symbol
 _atom_site_label
 _atom_site_symmetry_multiplicity
 _atom_site_fract_x
 _atom_site_fract_y
 _atom_site_fract_z
 _atom_site_occupancy
  Rb  Rb0  1  0.00000000  0.00000000  0.00000000  1.0
  Nd  Nd1  1  0.50000000  0.50000000  0.50000000  1.0
  Se  Se2  1  0.23365800  0.23365800  0.29902600  1.0
  Se  Se3  1  0.76634200  0.76634200  0.70097400  1.0
