# generated using pymatgen
data_RbTa2O6
_symmetry_space_group_name_H-M   'P 1'
_cell_length_a   7.50217400
_cell_length_b   7.51146381
_cell_length_c   7.51146381
_cell_angle_alpha   60.11538217
_cell_angle_beta   60.04090297
_cell_angle_gamma   60.04090297
_symmetry_Int_Tables_number   1
_chemical_formula_structural   RbTa2O6
_chemical_formula_sum   'Rb2 Ta4 O12'
_cell_volume   299.75556976
_cell_formula_units_Z   2
loop_
 _symmetry_equiv_pos_site_id
 _symmetry_equiv_pos_as_xyz
  1  'x, y, z'
loop_
 _atom_site_type_symbol
 _atom_site_label
 _atom_site_symmetry_multiplicity
 _atom_site_fract_x
 _atom_site_fract_y
 _atom_site_fract_z
 _atom_site_occupancy
  Rb  Rb0  1  0.40346100  0.90997000  0.78310800  1.0
  Rb  Rb1  1  0.59653900  0.21689200  0.09003000  1.0
  Ta  Ta2  1  0.99970200  0.50364300  0.99695300  1.0
  Ta  Ta3  1  0.00029800  0.00304700  0.49635700  1.0
  Ta  Ta4  1  1.00000000  0.50343800  0.49656200  1.0
  Ta  Ta5  1  0.50000000  0.50343800  0.49656200  1.0
  O  O6  1  0.31230000  0.43473100  0.44066900  1.0
  O  O7  1  0.93781300  0.81349800  0.81087500  1.0
  O  O8  1  0.31242700  0.81331500  0.44048100  1.0
  O  O9  1  0.93767600  0.43883300  0.81102200  1.0
  O  O10  1  0.31247000  0.43883200  0.81102200  1.0
  O  O11  1  0.93377700  0.81331500  0.44048100  1.0
  O  O12  1  0.68770000  0.55933100  0.56526900  1.0
  O  O13  1  0.06218600  0.18912600  0.18650200  1.0
  O  O14  1  0.68753100  0.18897800  0.56116700  1.0
  O  O15  1  0.06622300  0.55951900  0.18668500  1.0
  O  O16  1  0.68757300  0.55951900  0.18668500  1.0
  O  O17  1  0.06232500  0.18897700  0.56116700  1.0
