# generated using pymatgen
data_RbTe6
_symmetry_space_group_name_H-M   'P 1'
_cell_length_a   7.15635063
_cell_length_b   7.15635063
_cell_length_c   12.38181208
_cell_angle_alpha   93.41102811
_cell_angle_beta   104.44383840
_cell_angle_gamma   117.74225575
_symmetry_Int_Tables_number   1
_chemical_formula_structural   RbTe6
_chemical_formula_sum   'Rb2 Te12'
_cell_volume   531.95412506
_cell_formula_units_Z   2
loop_
 _symmetry_equiv_pos_site_id
 _symmetry_equiv_pos_as_xyz
  1  'x, y, z'
loop_
 _atom_site_type_symbol
 _atom_site_label
 _atom_site_symmetry_multiplicity
 _atom_site_fract_x
 _atom_site_fract_y
 _atom_site_fract_z
 _atom_site_occupancy
  Rb  Rb0  1  0.12370200  0.37370200  0.75000000  1.0
  Rb  Rb1  1  0.87629800  0.62629800  0.25000000  1.0
  Te  Te2  1  0.84655500  0.76425200  0.64601400  1.0
  Te  Te3  1  0.61823800  0.20054100  0.85398600  1.0
  Te  Te4  1  0.46132300  0.23671500  0.59161500  1.0
  Te  Te5  1  0.14510000  0.86970800  0.90838500  1.0
  Te  Te6  1  0.53867700  0.76328500  0.40838500  1.0
  Te  Te7  1  0.85490000  0.13029200  0.09161500  1.0
  Te  Te8  1  0.18078100  0.77972600  0.55741700  1.0
  Te  Te9  1  0.72230900  0.62336400  0.94258300  1.0
  Te  Te10  1  0.81921900  0.22027400  0.44258300  1.0
  Te  Te11  1  0.27769100  0.37663600  0.05741700  1.0
  Te  Te12  1  0.38176200  0.79945900  0.14601400  1.0
  Te  Te13  1  0.15344500  0.23574800  0.35398600  1.0
