# generated using pymatgen
data_Re3Pt
_symmetry_space_group_name_H-M   'P 1'
_cell_length_a   4.43712000
_cell_length_b   5.59456000
_cell_length_c   5.59456079
_cell_angle_alpha   60.00000469
_cell_angle_beta   90.00000000
_cell_angle_gamma   90.00000000
_symmetry_Int_Tables_number   1
_chemical_formula_structural   Re3Pt
_chemical_formula_sum   'Re6 Pt2'
_cell_volume   120.27178574
_cell_formula_units_Z   2
loop_
 _symmetry_equiv_pos_site_id
 _symmetry_equiv_pos_as_xyz
  1  'x, y, z'
loop_
 _atom_site_type_symbol
 _atom_site_label
 _atom_site_symmetry_multiplicity
 _atom_site_fract_x
 _atom_site_fract_y
 _atom_site_fract_z
 _atom_site_occupancy
  Re  Re0  1  0.75000000  0.68144900  0.15927600  1.0
  Re  Re1  1  0.75000000  0.15927500  0.15927600  1.0
  Re  Re2  1  0.75000000  0.15927500  0.68145000  1.0
  Re  Re3  1  0.25000000  0.31855100  0.84072400  1.0
  Re  Re4  1  0.25000000  0.84072500  0.84072400  1.0
  Re  Re5  1  0.25000000  0.84072500  0.31855000  1.0
  Pt  Pt6  1  0.25000000  0.33333333  0.33333333  1.0
  Pt  Pt7  1  0.75000000  0.66666667  0.66666667  1.0
