# generated using pymatgen
data_Re7B3
_symmetry_space_group_name_H-M   'P 1'
_cell_length_a   4.93198600
_cell_length_b   7.55498800
_cell_length_c   7.55498754
_cell_angle_alpha   120.00000202
_cell_angle_beta   90.00000000
_cell_angle_gamma   90.00000000
_symmetry_Int_Tables_number   1
_chemical_formula_structural   Re7B3
_chemical_formula_sum   'Re14 B6'
_cell_volume   243.79230265
_cell_formula_units_Z   2
loop_
 _symmetry_equiv_pos_site_id
 _symmetry_equiv_pos_as_xyz
  1  'x, y, z'
loop_
 _atom_site_type_symbol
 _atom_site_label
 _atom_site_symmetry_multiplicity
 _atom_site_fract_x
 _atom_site_fract_y
 _atom_site_fract_z
 _atom_site_occupancy
  Re  Re0  1  0.41302900  0.33333333  0.66666667  1.0
  Re  Re1  1  0.91302900  0.66666667  0.33333333  1.0
  Re  Re2  1  0.24948500  0.12257800  0.87742100  1.0
  Re  Re3  1  0.24948500  0.75484300  0.87742100  1.0
  Re  Re4  1  0.24948500  0.12257800  0.24515600  1.0
  Re  Re5  1  0.74948500  0.87742200  0.12257900  1.0
  Re  Re6  1  0.74948500  0.24515700  0.12257900  1.0
  Re  Re7  1  0.74948500  0.87742200  0.75484400  1.0
  Re  Re8  1  0.45018500  0.54608100  0.45392000  1.0
  Re  Re9  1  0.45018500  0.90783900  0.45392000  1.0
  Re  Re10  1  0.45018500  0.54608100  0.09216200  1.0
  Re  Re11  1  0.95018500  0.45391900  0.54608000  1.0
  Re  Re12  1  0.95018500  0.09216100  0.54608000  1.0
  Re  Re13  1  0.95018500  0.45391900  0.90783800  1.0
  B  B14  1  0.15865900  0.81025900  0.18974000  1.0
  B  B15  1  0.15865900  0.37948100  0.18974000  1.0
  B  B16  1  0.15865900  0.81025900  0.62051800  1.0
  B  B17  1  0.65865900  0.18974100  0.81026000  1.0
  B  B18  1  0.65865900  0.62051900  0.81026000  1.0
  B  B19  1  0.65865900  0.18974100  0.37948200  1.0
