# generated using pymatgen
data_ReRu3
_symmetry_space_group_name_H-M   'P 1'
_cell_length_a   4.34139600
_cell_length_b   5.48822200
_cell_length_c   5.48822228
_cell_angle_alpha   60.00000171
_cell_angle_beta   90.00000000
_cell_angle_gamma   90.00000000
_symmetry_Int_Tables_number   1
_chemical_formula_structural   ReRu3
_chemical_formula_sum   'Re2 Ru6'
_cell_volume   113.24613886
_cell_formula_units_Z   2
loop_
 _symmetry_equiv_pos_site_id
 _symmetry_equiv_pos_as_xyz
  1  'x, y, z'
loop_
 _atom_site_type_symbol
 _atom_site_label
 _atom_site_symmetry_multiplicity
 _atom_site_fract_x
 _atom_site_fract_y
 _atom_site_fract_z
 _atom_site_occupancy
  Re  Re0  1  0.25000000  0.33333333  0.33333333  1.0
  Re  Re1  1  0.75000000  0.66666667  0.66666667  1.0
  Ru  Ru2  1  0.75000000  0.66487400  0.16756300  1.0
  Ru  Ru3  1  0.75000000  0.16756300  0.16756300  1.0
  Ru  Ru4  1  0.75000000  0.16756300  0.66487400  1.0
  Ru  Ru5  1  0.25000000  0.33512600  0.83243700  1.0
  Ru  Ru6  1  0.25000000  0.83243700  0.83243700  1.0
  Ru  Ru7  1  0.25000000  0.83243700  0.33512600  1.0
