# generated using pymatgen
data_ReTc3
_symmetry_space_group_name_H-M   'P 1'
_cell_length_a   4.44087400
_cell_length_b   5.52767200
_cell_length_c   5.52767167
_cell_angle_alpha   120.00000195
_cell_angle_beta   90.00000000
_cell_angle_gamma   90.00000000
_symmetry_Int_Tables_number   1
_chemical_formula_structural   ReTc3
_chemical_formula_sum   'Re2 Tc6'
_cell_volume   117.51236809
_cell_formula_units_Z   2
loop_
 _symmetry_equiv_pos_site_id
 _symmetry_equiv_pos_as_xyz
  1  'x, y, z'
loop_
 _atom_site_type_symbol
 _atom_site_label
 _atom_site_symmetry_multiplicity
 _atom_site_fract_x
 _atom_site_fract_y
 _atom_site_fract_z
 _atom_site_occupancy
  Re  Re0  1  0.25000000  0.66666667  0.33333333  1.0
  Re  Re1  1  0.75000000  0.33333333  0.66666667  1.0
  Tc  Tc2  1  0.75000000  0.83258300  0.16741600  1.0
  Tc  Tc3  1  0.75000000  0.33483300  0.16741600  1.0
  Tc  Tc4  1  0.75000000  0.83258300  0.66516600  1.0
  Tc  Tc5  1  0.25000000  0.16741700  0.83258400  1.0
  Tc  Tc6  1  0.25000000  0.66516700  0.83258400  1.0
  Tc  Tc7  1  0.25000000  0.16741700  0.33483400  1.0
