# generated using pymatgen
data_Ru3W
_symmetry_space_group_name_H-M   'P 1'
_cell_length_a   4.38249000
_cell_length_b   5.51814000
_cell_length_c   5.51814050
_cell_angle_alpha   60.00000300
_cell_angle_beta   90.00000000
_cell_angle_gamma   90.00000000
_symmetry_Int_Tables_number   1
_chemical_formula_structural   Ru3W
_chemical_formula_sum   'Ru6 W2'
_cell_volume   115.56785359
_cell_formula_units_Z   2
loop_
 _symmetry_equiv_pos_site_id
 _symmetry_equiv_pos_as_xyz
  1  'x, y, z'
loop_
 _atom_site_type_symbol
 _atom_site_label
 _atom_site_symmetry_multiplicity
 _atom_site_fract_x
 _atom_site_fract_y
 _atom_site_fract_z
 _atom_site_occupancy
  Ru  Ru0  1  0.75000000  0.66651400  0.16674300  1.0
  Ru  Ru1  1  0.75000000  0.16674300  0.16674300  1.0
  Ru  Ru2  1  0.75000000  0.16674300  0.66651400  1.0
  Ru  Ru3  1  0.25000000  0.33348600  0.83325700  1.0
  Ru  Ru4  1  0.25000000  0.83325700  0.83325700  1.0
  Ru  Ru5  1  0.25000000  0.83325700  0.33348600  1.0
  W  W6  1  0.25000000  0.33333333  0.33333333  1.0
  W  W7  1  0.75000000  0.66666667  0.66666667  1.0
