# generated using pymatgen
data_S(ClO)2
_symmetry_space_group_name_H-M   'P 1'
_cell_length_a   5.78203000
_cell_length_b   6.18914739
_cell_length_c   8.70895147
_cell_angle_alpha   81.07963666
_cell_angle_beta   70.61227673
_cell_angle_gamma   62.15311196
_symmetry_Int_Tables_number   1
_chemical_formula_structural   S(ClO)2
_chemical_formula_sum   'S2 Cl4 O4'
_cell_volume   259.94055683
_cell_formula_units_Z   2
loop_
 _symmetry_equiv_pos_site_id
 _symmetry_equiv_pos_as_xyz
  1  'x, y, z'
loop_
 _atom_site_type_symbol
 _atom_site_label
 _atom_site_symmetry_multiplicity
 _atom_site_fract_x
 _atom_site_fract_y
 _atom_site_fract_z
 _atom_site_occupancy
  S  S0  1  0.25010700  1.00000000  1.00000000  1.0
  S  S1  1  0.00010700  0.50000000  0.50000000  1.0
  Cl  Cl2  1  0.85493900  0.25380900  0.08871600  1.0
  Cl  Cl3  1  0.69365500  0.75380900  0.41128400  1.0
  Cl  Cl4  1  0.85874800  0.24619100  0.58871600  1.0
  Cl  Cl5  1  0.19746400  0.74619100  0.91128400  1.0
  O  O6  1  0.38393400  0.10632600  0.86477600  1.0
  O  O7  1  0.99870900  0.60632700  0.63522400  1.0
  O  O8  1  0.35503700  0.89367300  0.13522300  1.0
  O  O9  1  0.24025900  0.39367400  0.36477700  1.0
