# generated using pymatgen
data_S
_symmetry_space_group_name_H-M   'P 1'
_cell_length_a   5.33894556
_cell_length_b   6.63979685
_cell_length_c   6.63979685
_cell_angle_alpha   113.09406891
_cell_angle_beta   105.54692449
_cell_angle_gamma   105.54692449
_symmetry_Int_Tables_number   1
_chemical_formula_structural   S
_chemical_formula_sum   S6
_cell_volume   189.19913625
_cell_formula_units_Z   6
loop_
 _symmetry_equiv_pos_site_id
 _symmetry_equiv_pos_as_xyz
  1  'x, y, z'
loop_
 _atom_site_type_symbol
 _atom_site_label
 _atom_site_symmetry_multiplicity
 _atom_site_fract_x
 _atom_site_fract_y
 _atom_site_fract_z
 _atom_site_occupancy
  S  S0  1  0.10243400  0.33066200  0.22674600  1.0
  S  S1  1  0.87568800  0.77325400  0.10391600  1.0
  S  S2  1  0.77177200  0.89608400  0.66933800  1.0
  S  S3  1  0.89756600  0.66933800  0.77325400  1.0
  S  S4  1  0.12431200  0.22674600  0.89608400  1.0
  S  S5  1  0.22822800  0.10391600  0.33066200  1.0
