# generated using pymatgen
data_SbNO
_symmetry_space_group_name_H-M   'P 1'
_cell_length_a   3.34361532
_cell_length_b   4.19408200
_cell_length_c   8.79253001
_cell_angle_alpha   103.79817765
_cell_angle_beta   92.17165254
_cell_angle_gamma   90.00000000
_symmetry_Int_Tables_number   1
_chemical_formula_structural   SbNO
_chemical_formula_sum   'Sb2 N2 O2'
_cell_volume   119.65170674
_cell_formula_units_Z   2
loop_
 _symmetry_equiv_pos_site_id
 _symmetry_equiv_pos_as_xyz
  1  'x, y, z'
loop_
 _atom_site_type_symbol
 _atom_site_label
 _atom_site_symmetry_multiplicity
 _atom_site_fract_x
 _atom_site_fract_y
 _atom_site_fract_z
 _atom_site_occupancy
  Sb  Sb0  1  0.01763700  0.82819100  0.65638200  1.0
  Sb  Sb1  1  0.98236300  0.17180900  0.34361800  1.0
  N  N2  1  0.51644300  0.46760000  0.93520000  1.0
  N  N3  1  0.48355700  0.53240000  0.06480000  1.0
  O  O4  1  0.95828100  0.70863900  0.41727800  1.0
  O  O5  1  0.04171900  0.29136100  0.58272200  1.0
