# generated using pymatgen
data_Sc2ZnS4
_symmetry_space_group_name_H-M   'P 1'
_cell_length_a   7.46005574
_cell_length_b   7.46005574
_cell_length_c   7.46005574
_cell_angle_alpha   60.00000000
_cell_angle_beta   60.00000000
_cell_angle_gamma   60.00000000
_symmetry_Int_Tables_number   1
_chemical_formula_structural   Sc2ZnS4
_chemical_formula_sum   'Sc4 Zn2 S8'
_cell_volume   293.56969356
_cell_formula_units_Z   2
loop_
 _symmetry_equiv_pos_site_id
 _symmetry_equiv_pos_as_xyz
  1  'x, y, z'
loop_
 _atom_site_type_symbol
 _atom_site_label
 _atom_site_symmetry_multiplicity
 _atom_site_fract_x
 _atom_site_fract_y
 _atom_site_fract_z
 _atom_site_occupancy
  Sc  Sc0  1  0.37500000  0.37500000  0.87500000  1.0
  Sc  Sc1  1  0.37500000  0.37500000  0.37500000  1.0
  Sc  Sc2  1  0.37500000  0.87500000  0.37500000  1.0
  Sc  Sc3  1  0.87500000  0.37500000  0.37500000  1.0
  Zn  Zn4  1  0.75000000  0.75000000  0.75000000  1.0
  Zn  Zn5  1  0.00000000  0.00000000  0.00000000  1.0
  S  S6  1  0.61983300  0.61983200  0.14050300  1.0
  S  S7  1  0.61983300  0.61983200  0.61983200  1.0
  S  S8  1  0.61983300  0.14050300  0.61983200  1.0
  S  S9  1  0.14050400  0.61983200  0.61983200  1.0
  S  S10  1  0.13016700  0.13016800  0.60949700  1.0
  S  S11  1  0.13016700  0.13016800  0.13016800  1.0
  S  S12  1  0.13016700  0.60949700  0.13016800  1.0
  S  S13  1  0.60949600  0.13016800  0.13016800  1.0
