# generated using pymatgen
data_Sc3FeC4
_symmetry_space_group_name_H-M   'P 1'
_cell_length_a   3.39362400
_cell_length_b   4.35623000
_cell_length_c   6.65642641
_cell_angle_alpha   109.10011965
_cell_angle_beta   104.76845119
_cell_angle_gamma   90.00000000
_symmetry_Int_Tables_number   1
_chemical_formula_structural   Sc3FeC4
_chemical_formula_sum   'Sc3 Fe1 C4'
_cell_volume   89.53993056
_cell_formula_units_Z   1
loop_
 _symmetry_equiv_pos_site_id
 _symmetry_equiv_pos_as_xyz
  1  'x, y, z'
loop_
 _atom_site_type_symbol
 _atom_site_label
 _atom_site_symmetry_multiplicity
 _atom_site_fract_x
 _atom_site_fract_y
 _atom_site_fract_z
 _atom_site_occupancy
  Sc  Sc0  1  0.00000000  0.50000000  0.00000000  1.0
  Sc  Sc1  1  0.81150000  0.81150000  0.62300000  1.0
  Sc  Sc2  1  0.18850000  0.18850000  0.37700000  1.0
  Fe  Fe3  1  0.50000000  0.00000000  1.00000000  1.0
  C  C4  1  0.62391600  0.78971700  0.24783200  1.0
  C  C5  1  0.37608400  0.21028300  0.75216800  1.0
  C  C6  1  0.37608400  0.54188500  0.75216800  1.0
  C  C7  1  0.62391600  0.45811500  0.24783200  1.0
