# generated using pymatgen
data_Sc3IrC4
_symmetry_space_group_name_H-M   'P 1'
_cell_length_a   5.62530434
_cell_length_b   5.62598800
_cell_length_c   6.75713836
_cell_angle_alpha   65.39881478
_cell_angle_beta   83.86592519
_cell_angle_gamma   75.12689805
_symmetry_Int_Tables_number   1
_chemical_formula_structural   Sc3IrC4
_chemical_formula_sum   'Sc6 Ir2 C8'
_cell_volume   187.92327303
_cell_formula_units_Z   2
loop_
 _symmetry_equiv_pos_site_id
 _symmetry_equiv_pos_as_xyz
  1  'x, y, z'
loop_
 _atom_site_type_symbol
 _atom_site_label
 _atom_site_symmetry_multiplicity
 _atom_site_fract_x
 _atom_site_fract_y
 _atom_site_fract_z
 _atom_site_occupancy
  Sc  Sc0  1  0.23680700  0.23875600  0.00000000  1.0
  Sc  Sc1  1  0.50000000  0.30859300  0.38281400  1.0
  Sc  Sc2  1  1.00000000  0.18956500  0.62087000  1.0
  Sc  Sc3  1  0.50000000  0.69140700  0.61718600  1.0
  Sc  Sc4  1  0.76319300  0.76124400  1.00000000  1.0
  Sc  Sc5  1  0.00000000  0.81043500  0.37913000  1.0
  Ir  Ir6  1  0.72817700  0.27079400  0.00000000  1.0
  Ir  Ir7  1  0.27182300  0.72920600  1.00000000  1.0
  C  C8  1  0.08155600  0.45226700  0.25759300  1.0
  C  C9  1  0.08155600  0.70986000  0.74240700  1.0
  C  C10  1  0.91844400  0.29014000  0.25759300  1.0
  C  C11  1  0.91844400  0.54773300  0.74240700  1.0
  C  C12  1  0.41848800  0.04657700  0.74465400  1.0
  C  C13  1  0.58151200  0.95342300  0.25534600  1.0
  C  C14  1  0.41848800  0.79123100  0.25534600  1.0
  C  C15  1  0.58151200  0.20876900  0.74465400  1.0
