# generated using pymatgen
data_Sc3IrC4
_symmetry_space_group_name_H-M   'P 1'
_cell_length_a   3.47053200
_cell_length_b   4.43733000
_cell_length_c   6.73933081
_cell_angle_alpha   109.22092190
_cell_angle_beta   104.92078991
_cell_angle_gamma   90.00000001
_symmetry_Int_Tables_number   1
_chemical_formula_structural   Sc3IrC4
_chemical_formula_sum   'Sc3 Ir1 C4'
_cell_volume   94.28580027
_cell_formula_units_Z   1
loop_
 _symmetry_equiv_pos_site_id
 _symmetry_equiv_pos_as_xyz
  1  'x, y, z'
loop_
 _atom_site_type_symbol
 _atom_site_label
 _atom_site_symmetry_multiplicity
 _atom_site_fract_x
 _atom_site_fract_y
 _atom_site_fract_z
 _atom_site_occupancy
  Sc  Sc0  1  0.50000000  0.50000000  0.00000000  1.0
  Sc  Sc1  1  0.69046100  0.19046100  0.38092200  1.0
  Sc  Sc2  1  0.30953900  0.80953900  0.61907800  1.0
  Ir  Ir3  1  0.00000000  0.00000000  0.00000000  1.0
  C  C4  1  0.12751700  0.79087000  0.25503400  1.0
  C  C5  1  0.87248300  0.20913000  0.74496600  1.0
  C  C6  1  0.87248300  0.53583600  0.74496600  1.0
  C  C7  1  0.12751700  0.46416400  0.25503400  1.0
