# generated using pymatgen
data_Sc3Si3Ni2
_symmetry_space_group_name_H-M   'P 1'
_cell_length_a   3.98081200
_cell_length_b   5.22935609
_cell_length_c   13.07610200
_cell_angle_alpha   90.00000000
_cell_angle_beta   90.00000000
_cell_angle_gamma   112.37219271
_symmetry_Int_Tables_number   1
_chemical_formula_structural   Sc3Si3Ni2
_chemical_formula_sum   'Sc6 Si6 Ni4'
_cell_volume   251.71757482
_cell_formula_units_Z   2
loop_
 _symmetry_equiv_pos_site_id
 _symmetry_equiv_pos_as_xyz
  1  'x, y, z'
loop_
 _atom_site_type_symbol
 _atom_site_label
 _atom_site_symmetry_multiplicity
 _atom_site_fract_x
 _atom_site_fract_y
 _atom_site_fract_z
 _atom_site_occupancy
  Sc  Sc0  1  0.08273500  0.16547000  0.11161300  1.0
  Sc  Sc1  1  0.91726500  0.83453000  0.88838700  1.0
  Sc  Sc2  1  0.91726500  0.83453000  0.61161300  1.0
  Sc  Sc3  1  0.36153300  0.72306600  0.25000000  1.0
  Sc  Sc4  1  0.08273500  0.16547000  0.38838700  1.0
  Sc  Sc5  1  0.63846700  0.27693400  0.75000000  1.0
  Si  Si6  1  0.34037600  0.68075200  0.75000000  1.0
  Si  Si7  1  0.65962400  0.31924800  0.25000000  1.0
  Si  Si8  1  0.38352000  0.76704000  0.46097600  1.0
  Si  Si9  1  0.61648000  0.23296000  0.53902400  1.0
  Si  Si10  1  0.61648000  0.23296000  0.96097600  1.0
  Si  Si11  1  0.38352000  0.76704000  0.03902400  1.0
  Ni  Ni12  1  0.20803400  0.41606800  0.59604300  1.0
  Ni  Ni13  1  0.79196600  0.58393200  0.40395700  1.0
  Ni  Ni14  1  0.20803400  0.41606800  0.90395700  1.0
  Ni  Ni15  1  0.79196600  0.58393200  0.09604300  1.0
