# generated using pymatgen
data_Sc7(CCl5)2
_symmetry_space_group_name_H-M   'P 1'
_cell_length_a   3.52433800
_cell_length_b   9.69998406
_cell_length_c   12.02827635
_cell_angle_alpha   100.26145237
_cell_angle_beta   90.00000000
_cell_angle_gamma   100.46688491
_symmetry_Int_Tables_number   1
_chemical_formula_structural   Sc7(CCl5)2
_chemical_formula_sum   'Sc7 C2 Cl10'
_cell_volume   397.66637170
_cell_formula_units_Z   1
loop_
 _symmetry_equiv_pos_site_id
 _symmetry_equiv_pos_as_xyz
  1  'x, y, z'
loop_
 _atom_site_type_symbol
 _atom_site_label
 _atom_site_symmetry_multiplicity
 _atom_site_fract_x
 _atom_site_fract_y
 _atom_site_fract_z
 _atom_site_occupancy
  Sc  Sc0  1  0.18255900  0.36511800  0.50633100  1.0
  Sc  Sc1  1  0.81744100  0.63488200  0.49366900  1.0
  Sc  Sc2  1  0.30013600  0.60027200  0.72065800  1.0
  Sc  Sc3  1  0.69986400  0.39972800  0.27934200  1.0
  Sc  Sc4  1  0.65777300  0.31554600  0.72783400  1.0
  Sc  Sc5  1  0.34222700  0.68445400  0.27216600  1.0
  Sc  Sc6  1  0.00000000  0.00000000  0.00000000  1.0
  C  C7  1  0.73982900  0.47965800  0.62389200  1.0
  C  C8  1  0.26017100  0.52034200  0.37610800  1.0
  Cl  Cl9  1  0.54676200  0.09352400  0.87975500  1.0
  Cl  Cl10  1  0.45323800  0.90647600  0.12024500  1.0
  Cl  Cl11  1  0.21423900  0.42847800  0.86916000  1.0
  Cl  Cl12  1  0.78576100  0.57152200  0.13084000  1.0
  Cl  Cl13  1  0.87764500  0.75529000  0.86561900  1.0
  Cl  Cl14  1  0.92429200  0.84858400  0.37436000  1.0
  Cl  Cl15  1  0.07570800  0.15141600  0.62564000  1.0
  Cl  Cl16  1  0.59829600  0.19659200  0.38549300  1.0
  Cl  Cl17  1  0.40170400  0.80340800  0.61450700  1.0
  Cl  Cl18  1  0.12235500  0.24471000  0.13438100  1.0
