# generated using pymatgen
data_ScGa2
_symmetry_space_group_name_H-M   'P 1'
_cell_length_a   4.12265600
_cell_length_b   5.58155698
_cell_length_c   5.58155698
_cell_angle_alpha   72.82772012
_cell_angle_beta   68.32689526
_cell_angle_gamma   68.32689526
_symmetry_Int_Tables_number   1
_chemical_formula_structural   ScGa2
_chemical_formula_sum   'Sc2 Ga4'
_cell_volume   109.02621215
_cell_formula_units_Z   2
loop_
 _symmetry_equiv_pos_site_id
 _symmetry_equiv_pos_as_xyz
  1  'x, y, z'
loop_
 _atom_site_type_symbol
 _atom_site_label
 _atom_site_symmetry_multiplicity
 _atom_site_fract_x
 _atom_site_fract_y
 _atom_site_fract_z
 _atom_site_occupancy
  Sc  Sc0  1  0.43929800  0.81070200  0.31070200  1.0
  Sc  Sc1  1  0.56070200  0.18929800  0.68929800  1.0
  Ga  Ga2  1  0.84195900  0.61202500  0.70405700  1.0
  Ga  Ga3  1  0.15804100  0.38797500  0.29594300  1.0
  Ga  Ga4  1  0.84195800  0.20405700  0.11202600  1.0
  Ga  Ga5  1  0.15804200  0.79594300  0.88797400  1.0
