# generated using pymatgen
data_ScNb2B2Ru5
_symmetry_space_group_name_H-M   'P 1'
_cell_length_a   3.05266600
_cell_length_b   9.47581506
_cell_length_c   9.47581506
_cell_angle_alpha   89.98163228
_cell_angle_beta   90.00000000
_cell_angle_gamma   90.00000000
_symmetry_Int_Tables_number   1
_chemical_formula_structural   ScNb2B2Ru5
_chemical_formula_sum   'Sc2 Nb4 B4 Ru10'
_cell_volume   274.10213562
_cell_formula_units_Z   2
loop_
 _symmetry_equiv_pos_site_id
 _symmetry_equiv_pos_as_xyz
  1  'x, y, z'
loop_
 _atom_site_type_symbol
 _atom_site_label
 _atom_site_symmetry_multiplicity
 _atom_site_fract_x
 _atom_site_fract_y
 _atom_site_fract_z
 _atom_site_occupancy
  Sc  Sc0  1  0.00000000  0.82525800  0.17474200  1.0
  Sc  Sc1  1  0.00000000  0.17474200  0.82525800  1.0
  Nb  Nb2  1  0.00000000  0.00000000  0.50000000  1.0
  Nb  Nb3  1  0.00000000  0.50000000  0.00000000  1.0
  Nb  Nb4  1  0.00000000  0.67670700  0.67670700  1.0
  Nb  Nb5  1  0.00000000  0.32329300  0.32329300  1.0
  B  B6  1  0.00000000  0.62254600  0.37745400  1.0
  B  B7  1  1.00000000  0.37745400  0.62254600  1.0
  B  B8  1  0.00000000  0.88059800  0.88059800  1.0
  B  B9  1  0.00000000  0.11940200  0.11940200  1.0
  Ru  Ru10  1  0.50000000  0.50000000  0.50000000  1.0
  Ru  Ru11  1  0.50000000  0.00000000  0.00000000  1.0
  Ru  Ru12  1  0.50000000  0.78015300  0.43438600  1.0
  Ru  Ru13  1  0.50000000  0.21984700  0.56561400  1.0
  Ru  Ru14  1  0.50000000  0.71620600  0.92393600  1.0
  Ru  Ru15  1  0.50000000  0.28379400  0.07606400  1.0
  Ru  Ru16  1  0.50000000  0.92393600  0.71620600  1.0
  Ru  Ru17  1  0.50000000  0.07606400  0.28379400  1.0
  Ru  Ru18  1  0.50000000  0.43438600  0.78015300  1.0
  Ru  Ru19  1  0.50000000  0.56561400  0.21984700  1.0
