# generated using pymatgen
data_Si2Mo
_symmetry_space_group_name_H-M   'P 1'
_cell_length_a   3.22037600
_cell_length_b   3.22037600
_cell_length_c   4.54597254
_cell_angle_alpha   110.74448322
_cell_angle_beta   110.74448323
_cell_angle_gamma   89.99999999
_symmetry_Int_Tables_number   1
_chemical_formula_structural   Si2Mo
_chemical_formula_sum   'Si2 Mo1'
_cell_volume   40.80421542
_cell_formula_units_Z   1
loop_
 _symmetry_equiv_pos_site_id
 _symmetry_equiv_pos_as_xyz
  1  'x, y, z'
loop_
 _atom_site_type_symbol
 _atom_site_label
 _atom_site_symmetry_multiplicity
 _atom_site_fract_x
 _atom_site_fract_y
 _atom_site_fract_z
 _atom_site_occupancy
  Si  Si0  1  0.66484000  0.66484000  0.32968000  1.0
  Si  Si1  1  0.33516000  0.33516000  0.67032000  1.0
  Mo  Mo2  1  0.00000000  0.00000000  0.00000000  1.0
