# generated using pymatgen
data_SiB2Mo5
_symmetry_space_group_name_H-M   'P 1'
_cell_length_a   6.05326200
_cell_length_b   6.05326200
_cell_length_c   7.03238936
_cell_angle_alpha   115.49196055
_cell_angle_beta   115.49196055
_cell_angle_gamma   90.00000000
_symmetry_Int_Tables_number   1
_chemical_formula_structural   SiB2Mo5
_chemical_formula_sum   'Si2 B4 Mo10'
_cell_volume   204.45276320
_cell_formula_units_Z   2
loop_
 _symmetry_equiv_pos_site_id
 _symmetry_equiv_pos_as_xyz
  1  'x, y, z'
loop_
 _atom_site_type_symbol
 _atom_site_label
 _atom_site_symmetry_multiplicity
 _atom_site_fract_x
 _atom_site_fract_y
 _atom_site_fract_z
 _atom_site_occupancy
  Si  Si0  1  0.75000000  0.75000000  0.50000000  1.0
  Si  Si1  1  0.25000000  0.25000000  0.50000000  1.0
  B  B2  1  0.37904800  0.12095100  0.99999900  1.0
  B  B3  1  0.87904800  0.37904800  0.00000000  1.0
  B  B4  1  0.62095200  0.87904900  0.00000100  1.0
  B  B5  1  0.12095200  0.62095200  0.00000000  1.0
  Mo  Mo6  1  0.00000000  0.00000000  0.00000000  1.0
  Mo  Mo7  1  0.80380800  0.30380800  0.27951700  1.0
  Mo  Mo8  1  0.30380800  0.47570900  0.27951700  1.0
  Mo  Mo9  1  0.19619200  0.69619200  0.72048300  1.0
  Mo  Mo10  1  0.52429100  0.02429100  0.72048300  1.0
  Mo  Mo11  1  0.02429100  0.19619200  0.72048300  1.0
  Mo  Mo12  1  0.69619200  0.52429100  0.72048300  1.0
  Mo  Mo13  1  0.97570900  0.80380800  0.27951700  1.0
  Mo  Mo14  1  0.50000000  0.50000000  0.00000000  1.0
  Mo  Mo15  1  0.47570900  0.97570900  0.27951700  1.0
