# generated using pymatgen
data_SiBi2O5
_symmetry_space_group_name_H-M   'P 1'
_cell_length_a   5.39235500
_cell_length_b   5.55379800
_cell_length_c   8.18956803
_cell_angle_alpha   70.17931409
_cell_angle_beta   90.00000000
_cell_angle_gamma   90.00000000
_symmetry_Int_Tables_number   1
_chemical_formula_structural   SiBi2O5
_chemical_formula_sum   'Si2 Bi4 O10'
_cell_volume   230.73190953
_cell_formula_units_Z   2
loop_
 _symmetry_equiv_pos_site_id
 _symmetry_equiv_pos_as_xyz
  1  'x, y, z'
loop_
 _atom_site_type_symbol
 _atom_site_label
 _atom_site_symmetry_multiplicity
 _atom_site_fract_x
 _atom_site_fract_y
 _atom_site_fract_z
 _atom_site_occupancy
  Si  Si0  1  0.69545600  0.32307400  1.00000000  1.0
  Si  Si1  1  0.19545600  0.67692600  1.00000000  1.0
  Bi  Bi2  1  0.26092400  0.38526400  0.66811300  1.0
  Bi  Bi3  1  0.76092400  0.61473600  0.33188700  1.0
  Bi  Bi4  1  0.76092400  0.94662300  0.66811300  1.0
  Bi  Bi5  1  0.26092400  0.05337700  0.33188700  1.0
  O  O6  1  0.48785100  0.73865400  0.50213200  1.0
  O  O7  1  0.98785100  0.26134600  0.49786800  1.0
  O  O8  1  0.98785100  0.75921400  0.50213200  1.0
  O  O9  1  0.48785100  0.24078600  0.49786800  1.0
  O  O10  1  0.67121300  0.26614200  0.81861700  1.0
  O  O11  1  0.17121300  0.73385800  0.18138300  1.0
  O  O12  1  0.46656900  0.52985900  0.00000000  1.0
  O  O13  1  0.96656900  0.47014100  0.00000000  1.0
  O  O14  1  0.67121300  0.08475900  0.18138300  1.0
  O  O15  1  0.17121300  0.91524100  0.81861700  1.0
