# generated using pymatgen
data_SiBr4
_symmetry_space_group_name_H-M   'P 1'
_cell_length_a   7.34015100
_cell_length_b   11.23145600
_cell_length_c   11.38112814
_cell_angle_alpha   102.71646872
_cell_angle_beta   90.00000000
_cell_angle_gamma   90.00000000
_symmetry_Int_Tables_number   1
_chemical_formula_structural   SiBr4
_chemical_formula_sum   'Si4 Br16'
_cell_volume   915.25238487
_cell_formula_units_Z   4
loop_
 _symmetry_equiv_pos_site_id
 _symmetry_equiv_pos_as_xyz
  1  'x, y, z'
loop_
 _atom_site_type_symbol
 _atom_site_label
 _atom_site_symmetry_multiplicity
 _atom_site_fract_x
 _atom_site_fract_y
 _atom_site_fract_z
 _atom_site_occupancy
  Si  Si0  1  0.92185500  0.75190000  0.85845300  1.0
  Si  Si1  1  0.57814500  0.75190000  0.35845300  1.0
  Si  Si2  1  0.07814500  0.24810000  0.14154700  1.0
  Si  Si3  1  0.42185500  0.24810000  0.64154700  1.0
  Br  Br4  1  0.55856500  0.09313700  0.69621600  1.0
  Br  Br5  1  0.56730900  0.29383500  0.48693500  1.0
  Br  Br6  1  0.92376300  0.59120800  0.70575300  1.0
  Br  Br7  1  0.36263900  0.19613800  0.08922100  1.0
  Br  Br8  1  0.93269100  0.29383500  0.98693500  1.0
  Br  Br9  1  0.42376300  0.40879200  0.79424700  1.0
  Br  Br10  1  0.63736100  0.80386200  0.91077900  1.0
  Br  Br11  1  0.44143500  0.90686300  0.30378400  1.0
  Br  Br12  1  0.05856500  0.90686300  0.80378400  1.0
  Br  Br13  1  0.07623700  0.40879200  0.29424700  1.0
  Br  Br14  1  0.43269100  0.70616500  0.51306500  1.0
  Br  Br15  1  0.86263900  0.80386200  0.41077900  1.0
  Br  Br16  1  0.06730900  0.70616500  0.01306500  1.0
  Br  Br17  1  0.13736100  0.19613800  0.58922100  1.0
  Br  Br18  1  0.94143500  0.09313700  0.19621600  1.0
  Br  Br19  1  0.57623700  0.59120800  0.20575300  1.0
