# generated using pymatgen
data_SiO2
_symmetry_space_group_name_H-M   'P 1'
_cell_length_a   4.76747500
_cell_length_b   6.01008391
_cell_length_c   6.01008391
_cell_angle_alpha   93.67735780
_cell_angle_beta   90.00000000
_cell_angle_gamma   90.00000000
_symmetry_Int_Tables_number   1
_chemical_formula_structural   SiO2
_chemical_formula_sum   'Si4 O8'
_cell_volume   171.85191638
_cell_formula_units_Z   4
loop_
 _symmetry_equiv_pos_site_id
 _symmetry_equiv_pos_as_xyz
  1  'x, y, z'
loop_
 _atom_site_type_symbol
 _atom_site_label
 _atom_site_symmetry_multiplicity
 _atom_site_fract_x
 _atom_site_fract_y
 _atom_site_fract_z
 _atom_site_occupancy
  Si  Si0  1  0.63131100  0.65291600  0.97859000  1.0
  Si  Si1  1  0.13131100  0.34708400  0.02141000  1.0
  Si  Si2  1  0.86868900  0.02141000  0.34708400  1.0
  Si  Si3  1  0.36868900  0.97859000  0.65291600  1.0
  O  O4  1  0.61286500  0.09983500  0.51391200  1.0
  O  O5  1  0.38713500  0.51391200  0.09983500  1.0
  O  O6  1  1.00000000  0.24087400  0.24087400  1.0
  O  O7  1  0.11286500  0.90016500  0.48608800  1.0
  O  O8  1  0.88713500  0.48608800  0.90016500  1.0
  O  O9  1  0.75000000  0.84930400  0.15069600  1.0
  O  O10  1  0.50000000  0.75912600  0.75912600  1.0
  O  O11  1  0.25000000  0.15069600  0.84930400  1.0
