# generated using pymatgen
data_SiO2
_symmetry_space_group_name_H-M   'P 1'
_cell_length_a   5.16230976
_cell_length_b   6.98168918
_cell_length_c   6.98168918
_cell_angle_alpha   75.93461146
_cell_angle_beta   70.95709337
_cell_angle_gamma   70.95709337
_symmetry_Int_Tables_number   1
_chemical_formula_structural   SiO2
_chemical_formula_sum   'Si4 O8'
_cell_volume   222.20198099
_cell_formula_units_Z   4
loop_
 _symmetry_equiv_pos_site_id
 _symmetry_equiv_pos_as_xyz
  1  'x, y, z'
loop_
 _atom_site_type_symbol
 _atom_site_label
 _atom_site_symmetry_multiplicity
 _atom_site_fract_x
 _atom_site_fract_y
 _atom_site_fract_z
 _atom_site_occupancy
  Si  Si0  1  0.36661600  0.94662600  0.74286500  1.0
  Si  Si1  1  0.13338400  0.25713500  0.05337400  1.0
  Si  Si2  1  0.63338400  0.05337400  0.25713500  1.0
  Si  Si3  1  0.86661600  0.74286500  0.94662600  1.0
  O  O4  1  1.00000000  0.50000000  0.00000000  1.0
  O  O5  1  0.50000000  0.00000000  0.50000000  1.0
  O  O6  1  0.89465900  0.15161500  0.21971600  1.0
  O  O7  1  0.60534100  0.78028400  0.84838500  1.0
  O  O8  1  0.25000000  0.15755200  0.84244800  1.0
  O  O9  1  0.75000000  0.84244800  0.15755200  1.0
  O  O10  1  0.39465900  0.21971600  0.15161500  1.0
  O  O11  1  0.10534100  0.84838500  0.78028400  1.0
