# generated using pymatgen
data_Sm(GaPd)2
_symmetry_space_group_name_H-M   'P 1'
_cell_length_a   4.28098600
_cell_length_b   4.28098600
_cell_length_c   6.04766115
_cell_angle_alpha   110.72832943
_cell_angle_beta   110.72832943
_cell_angle_gamma   90.00000000
_symmetry_Int_Tables_number   1
_chemical_formula_structural   Sm(GaPd)2
_chemical_formula_sum   'Sm1 Ga2 Pd2'
_cell_volume   95.95074476
_cell_formula_units_Z   1
loop_
 _symmetry_equiv_pos_site_id
 _symmetry_equiv_pos_as_xyz
  1  'x, y, z'
loop_
 _atom_site_type_symbol
 _atom_site_label
 _atom_site_symmetry_multiplicity
 _atom_site_fract_x
 _atom_site_fract_y
 _atom_site_fract_z
 _atom_site_occupancy
  Sm  Sm0  1  0.00000000  0.00000000  0.00000000  1.0
  Ga  Ga1  1  0.62152800  0.62152800  0.24305600  1.0
  Ga  Ga2  1  0.37847200  0.37847200  0.75694400  1.0
  Pd  Pd3  1  0.75000000  0.25000000  0.50000000  1.0
  Pd  Pd4  1  0.25000000  0.75000000  0.50000000  1.0
