# generated using pymatgen
data_Sm(NiP)2
_symmetry_space_group_name_H-M   'P 1'
_cell_length_a   3.91870400
_cell_length_b   3.91870400
_cell_length_c   5.48898388
_cell_angle_alpha   110.91366437
_cell_angle_beta   110.91366436
_cell_angle_gamma   90.00000001
_symmetry_Int_Tables_number   1
_chemical_formula_structural   Sm(NiP)2
_chemical_formula_sum   'Sm1 Ni2 P2'
_cell_volume   72.76140192
_cell_formula_units_Z   1
loop_
 _symmetry_equiv_pos_site_id
 _symmetry_equiv_pos_as_xyz
  1  'x, y, z'
loop_
 _atom_site_type_symbol
 _atom_site_label
 _atom_site_symmetry_multiplicity
 _atom_site_fract_x
 _atom_site_fract_y
 _atom_site_fract_z
 _atom_site_occupancy
  Sm  Sm0  1  0.00000000  0.00000000  0.00000000  1.0
  Ni  Ni1  1  0.25000000  0.75000000  0.50000000  1.0
  Ni  Ni2  1  0.75000000  0.25000000  0.50000000  1.0
  P  P3  1  0.37448900  0.37448900  0.74897800  1.0
  P  P4  1  0.62551100  0.62551100  0.25102200  1.0
