# generated using pymatgen
data_Sm2Sn5
_symmetry_space_group_name_H-M   'P 1'
_cell_length_a   4.62322200
_cell_length_b   4.64082900
_cell_length_c   17.80842195
_cell_angle_alpha   90.00000000
_cell_angle_beta   97.45828778
_cell_angle_gamma   90.00000000
_symmetry_Int_Tables_number   1
_chemical_formula_structural   Sm2Sn5
_chemical_formula_sum   'Sm4 Sn10'
_cell_volume   378.85744476
_cell_formula_units_Z   2
loop_
 _symmetry_equiv_pos_site_id
 _symmetry_equiv_pos_as_xyz
  1  'x, y, z'
loop_
 _atom_site_type_symbol
 _atom_site_label
 _atom_site_symmetry_multiplicity
 _atom_site_fract_x
 _atom_site_fract_y
 _atom_site_fract_z
 _atom_site_occupancy
  Sm  Sm0  1  0.93242300  0.50000000  0.86484600  1.0
  Sm  Sm1  1  0.06757700  0.50000000  0.13515400  1.0
  Sm  Sm2  1  0.79762800  0.50000000  0.59525600  1.0
  Sm  Sm3  1  0.20237200  0.50000000  0.40474400  1.0
  Sn  Sn4  1  0.63741500  0.50000000  0.27483000  1.0
  Sn  Sn5  1  0.36258500  0.50000000  0.72517000  1.0
  Sn  Sn6  1  0.72102800  0.00000000  0.44205600  1.0
  Sn  Sn7  1  0.27897200  0.00000000  0.55794400  1.0
  Sn  Sn8  1  0.50000000  0.50000000  1.00000000  1.0
  Sn  Sn9  1  0.57066400  0.00000000  0.14132800  1.0
  Sn  Sn10  1  0.42933600  0.00000000  0.85867200  1.0
  Sn  Sn11  1  0.86191800  0.00000000  0.72383600  1.0
  Sn  Sn12  1  0.13808200  1.00000000  0.27616400  1.0
  Sn  Sn13  1  0.00000000  0.00000000  0.00000000  1.0
