# generated using pymatgen
data_Sm2SCl4
_symmetry_space_group_name_H-M   'P 1'
_cell_length_a   6.48386600
_cell_length_b   7.05648670
_cell_length_c   8.33265917
_cell_angle_alpha   97.41185901
_cell_angle_beta   112.89623615
_cell_angle_gamma   90.00000000
_symmetry_Int_Tables_number   1
_chemical_formula_structural   Sm2SCl4
_chemical_formula_sum   'Sm4 S2 Cl8'
_cell_volume   347.74814221
_cell_formula_units_Z   2
loop_
 _symmetry_equiv_pos_site_id
 _symmetry_equiv_pos_as_xyz
  1  'x, y, z'
loop_
 _atom_site_type_symbol
 _atom_site_label
 _atom_site_symmetry_multiplicity
 _atom_site_fract_x
 _atom_site_fract_y
 _atom_site_fract_z
 _atom_site_occupancy
  Sm  Sm0  1  0.10080100  0.42271900  0.78625000  1.0
  Sm  Sm1  1  0.31455100  0.07728100  0.21375000  1.0
  Sm  Sm2  1  0.89919900  0.57728100  0.21375000  1.0
  Sm  Sm3  1  0.68544900  0.92271900  0.78625000  1.0
  S  S4  1  0.06305100  0.75000000  1.00000000  1.0
  S  S5  1  0.93694900  0.25000000  0.00000000  1.0
  Cl  Cl6  1  0.51570500  0.57607500  0.82396200  1.0
  Cl  Cl7  1  0.69174300  0.92392500  0.17603800  1.0
  Cl  Cl8  1  0.48429500  0.42392500  0.17603800  1.0
  Cl  Cl9  1  0.30825700  0.07607500  0.82396200  1.0
  Cl  Cl10  1  0.86078700  0.67894700  0.56110100  1.0
  Cl  Cl11  1  0.29968600  0.82105300  0.43889900  1.0
  Cl  Cl12  1  0.13921300  0.32105300  0.43889900  1.0
  Cl  Cl13  1  0.70031400  0.17894700  0.56110100  1.0
