# generated using pymatgen
data_Sm3YS4
_symmetry_space_group_name_H-M   'P 1'
_cell_length_a   3.93299000
_cell_length_b   6.95420213
_cell_length_c   6.96491104
_cell_angle_alpha   100.39175218
_cell_angle_beta   106.40010178
_cell_angle_gamma   90.00000000
_symmetry_Int_Tables_number   1
_chemical_formula_structural   Sm3YS4
_chemical_formula_sum   'Sm3 Y1 S4'
_cell_volume   179.48582481
_cell_formula_units_Z   1
loop_
 _symmetry_equiv_pos_site_id
 _symmetry_equiv_pos_as_xyz
  1  'x, y, z'
loop_
 _atom_site_type_symbol
 _atom_site_label
 _atom_site_symmetry_multiplicity
 _atom_site_fract_x
 _atom_site_fract_y
 _atom_site_fract_z
 _atom_site_occupancy
  Sm  Sm0  1  0.75161400  0.25388700  0.50322800  1.0
  Sm  Sm1  1  0.50000000  0.50000000  0.00000000  1.0
  Sm  Sm2  1  0.24838600  0.74611300  0.49677200  1.0
  Y  Y3  1  0.00000000  0.00000000  0.00000000  1.0
  S  S4  1  0.37802400  0.12031000  0.75604800  1.0
  S  S5  1  0.12314100  0.36846000  0.24628200  1.0
  S  S6  1  0.87685900  0.63154000  0.75371800  1.0
  S  S7  1  0.62197600  0.87969000  0.24395200  1.0
