# generated using pymatgen
data_SmGd3
_symmetry_space_group_name_H-M   'P 1'
_cell_length_a   5.08620600
_cell_length_b   5.08620600
_cell_length_c   6.24401929
_cell_angle_alpha   114.03447286
_cell_angle_beta   114.03447285
_cell_angle_gamma   90.00000001
_symmetry_Int_Tables_number   1
_chemical_formula_structural   SmGd3
_chemical_formula_sum   'Sm1 Gd3'
_cell_volume   132.04349804
_cell_formula_units_Z   1
loop_
 _symmetry_equiv_pos_site_id
 _symmetry_equiv_pos_as_xyz
  1  'x, y, z'
loop_
 _atom_site_type_symbol
 _atom_site_label
 _atom_site_symmetry_multiplicity
 _atom_site_fract_x
 _atom_site_fract_y
 _atom_site_fract_z
 _atom_site_occupancy
  Sm  Sm0  1  0.00000000  0.00000000  0.00000000  1.0
  Gd  Gd1  1  0.75000000  0.25000000  0.50000000  1.0
  Gd  Gd2  1  0.25000000  0.75000000  0.50000000  1.0
  Gd  Gd3  1  0.50000000  0.50000000  1.00000000  1.0
