# generated using pymatgen
data_SmGdS2
_symmetry_space_group_name_H-M   'P 1'
_cell_length_a   3.96739636
_cell_length_b   3.96739636
_cell_length_c   6.94957646
_cell_angle_alpha   73.41475240
_cell_angle_beta   73.41475240
_cell_angle_gamma   59.99999408
_symmetry_Int_Tables_number   1
_chemical_formula_structural   SmGdS2
_chemical_formula_sum   'Sm1 Gd1 S2'
_cell_volume   89.43915719
_cell_formula_units_Z   1
loop_
 _symmetry_equiv_pos_site_id
 _symmetry_equiv_pos_as_xyz
  1  'x, y, z'
loop_
 _atom_site_type_symbol
 _atom_site_label
 _atom_site_symmetry_multiplicity
 _atom_site_fract_x
 _atom_site_fract_y
 _atom_site_fract_z
 _atom_site_occupancy
  Sm  Sm0  1  0.50000000  0.50000000  0.50000000  1.0
  Gd  Gd1  1  0.00000000  0.00000000  0.00000000  1.0
  S  S2  1  0.25176500  0.25176500  0.24470500  1.0
  S  S3  1  0.74823500  0.74823500  0.75529500  1.0
