# generated using pymatgen
data_SmIO
_symmetry_space_group_name_H-M   'P 1'
_cell_length_a   4.02526495
_cell_length_b   4.02526495
_cell_length_c   11.21875101
_cell_angle_alpha   79.66524038
_cell_angle_beta   79.66524038
_cell_angle_gamma   60.00001731
_symmetry_Int_Tables_number   1
_chemical_formula_structural   SmIO
_chemical_formula_sum   'Sm2 I2 O2'
_cell_volume   154.00686650
_cell_formula_units_Z   2
loop_
 _symmetry_equiv_pos_site_id
 _symmetry_equiv_pos_as_xyz
  1  'x, y, z'
loop_
 _atom_site_type_symbol
 _atom_site_label
 _atom_site_symmetry_multiplicity
 _atom_site_fract_x
 _atom_site_fract_y
 _atom_site_fract_z
 _atom_site_occupancy
  Sm  Sm0  1  0.21062100  0.21062100  0.36813700  1.0
  Sm  Sm1  1  0.78937900  0.78937900  0.63186300  1.0
  I  I2  1  0.61123600  0.61123600  0.16629200  1.0
  I  I3  1  0.38876400  0.38876400  0.83370800  1.0
  O  O4  1  0.13993300  0.13993300  0.58020100  1.0
  O  O5  1  0.86006700  0.86006700  0.41979900  1.0
