# generated using pymatgen
data_Sn(BiTe2)2
_symmetry_space_group_name_H-M   'P 1'
_cell_length_a   4.47448152
_cell_length_b   4.47448152
_cell_length_c   14.32926592
_cell_angle_alpha   81.01760889
_cell_angle_beta   81.01760889
_cell_angle_gamma   60.00000713
_symmetry_Int_Tables_number   1
_chemical_formula_structural   Sn(BiTe2)2
_chemical_formula_sum   'Sn1 Bi2 Te4'
_cell_volume   244.37961261
_cell_formula_units_Z   1
loop_
 _symmetry_equiv_pos_site_id
 _symmetry_equiv_pos_as_xyz
  1  'x, y, z'
loop_
 _atom_site_type_symbol
 _atom_site_label
 _atom_site_symmetry_multiplicity
 _atom_site_fract_x
 _atom_site_fract_y
 _atom_site_fract_z
 _atom_site_occupancy
  Sn  Sn0  1  0.00000000  0.00000000  0.00000000  1.0
  Bi  Bi1  1  0.57323800  0.57323800  0.28028600  1.0
  Bi  Bi2  1  0.42676200  0.42676200  0.71971400  1.0
  Te  Te3  1  0.86628400  0.86628400  0.40114800  1.0
  Te  Te4  1  0.71146600  0.71146600  0.86560200  1.0
  Te  Te5  1  0.28853400  0.28853400  0.13439800  1.0
  Te  Te6  1  0.13371600  0.13371600  0.59885200  1.0
