# generated using pymatgen
data_SnP
_symmetry_space_group_name_H-M   'P 1'
_cell_length_a   4.17630800
_cell_length_b   4.17630815
_cell_length_c   6.87715400
_cell_angle_alpha   90.00000000
_cell_angle_beta   90.00000000
_cell_angle_gamma   119.99999878
_symmetry_Int_Tables_number   1
_chemical_formula_structural   SnP
_chemical_formula_sum   'Sn2 P2'
_cell_volume   103.87820633
_cell_formula_units_Z   2
loop_
 _symmetry_equiv_pos_site_id
 _symmetry_equiv_pos_as_xyz
  1  'x, y, z'
loop_
 _atom_site_type_symbol
 _atom_site_label
 _atom_site_symmetry_multiplicity
 _atom_site_fract_x
 _atom_site_fract_y
 _atom_site_fract_z
 _atom_site_occupancy
  Sn  Sn0  1  0.66666667  0.33333333  0.33388800  1.0
  Sn  Sn1  1  0.33333333  0.66666667  0.66611200  1.0
  P  P2  1  0.00000000  0.00000000  0.15909300  1.0
  P  P3  1  0.00000000  0.00000000  0.84090700  1.0
