# generated using pymatgen
data_SnPbS2
_symmetry_space_group_name_H-M   'P 1'
_cell_length_a   4.17672163
_cell_length_b   4.22781760
_cell_length_c   17.07102243
_cell_angle_alpha   92.65994766
_cell_angle_beta   94.34197715
_cell_angle_gamma   90.05879262
_symmetry_Int_Tables_number   1
_chemical_formula_structural   SnPbS2
_chemical_formula_sum   'Sn2 Pb2 S4'
_cell_volume   300.25508529
_cell_formula_units_Z   2
loop_
 _symmetry_equiv_pos_site_id
 _symmetry_equiv_pos_as_xyz
  1  'x, y, z'
loop_
 _atom_site_type_symbol
 _atom_site_label
 _atom_site_symmetry_multiplicity
 _atom_site_fract_x
 _atom_site_fract_y
 _atom_site_fract_z
 _atom_site_occupancy
  Sn  Sn0  1  0.67488500  0.38671400  0.24436000  1.0
  Sn  Sn1  1  0.77641600  0.13440600  0.58774500  1.0
  Pb  Pb2  1  0.32944800  0.61702200  0.75912100  1.0
  Pb  Pb3  1  0.22319500  0.89096000  0.41383600  1.0
  S  S4  1  0.28386800  0.55368300  0.60093700  1.0
  S  S5  1  0.71592400  0.42159500  0.39729800  1.0
  S  S6  1  0.82672200  0.09863800  0.74170600  1.0
  S  S7  1  0.16954100  0.89698400  0.25499800  1.0
