# generated using pymatgen
data_SnPS3
_symmetry_space_group_name_H-M   'P 1'
_cell_length_a   6.65579800
_cell_length_b   7.68465400
_cell_length_c   9.84142831
_cell_angle_alpha   90.00000000
_cell_angle_beta   89.63626872
_cell_angle_gamma   90.00000000
_symmetry_Int_Tables_number   1
_chemical_formula_structural   SnPS3
_chemical_formula_sum   'Sn4 P4 S12'
_cell_volume   503.35435773
_cell_formula_units_Z   4
loop_
 _symmetry_equiv_pos_site_id
 _symmetry_equiv_pos_as_xyz
  1  'x, y, z'
loop_
 _atom_site_type_symbol
 _atom_site_label
 _atom_site_symmetry_multiplicity
 _atom_site_fract_x
 _atom_site_fract_y
 _atom_site_fract_z
 _atom_site_occupancy
  Sn  Sn0  1  0.29631600  0.12955800  0.44892600  1.0
  Sn  Sn1  1  0.79631600  0.87044200  0.94892600  1.0
  Sn  Sn2  1  0.23885700  0.39972200  0.95629500  1.0
  Sn  Sn3  1  0.73885700  0.60027800  0.45629500  1.0
  P  P4  1  0.18688000  0.64974300  0.68705500  1.0
  P  P5  1  0.68688000  0.35025700  0.18705500  1.0
  P  P6  1  0.30894600  0.86511300  0.81848700  1.0
  P  P7  1  0.80894600  0.13488700  0.31848700  1.0
  S  S8  1  0.43175100  0.42668500  0.28991200  1.0
  S  S9  1  0.93175100  0.57331500  0.78991200  1.0
  S  S10  1  0.89144000  0.54655600  0.20307300  1.0
  S  S11  1  0.39144000  0.45344400  0.70307300  1.0
  S  S12  1  0.84944000  0.24829000  0.50335000  1.0
  S  S13  1  0.34944000  0.75171000  0.00335000  1.0
  S  S14  1  0.06790400  0.04669600  0.23162500  1.0
  S  S15  1  0.56790400  0.95330400  0.73162500  1.0
  S  S16  1  0.59039000  0.94836300  0.31118400  1.0
  S  S17  1  0.09039000  0.05163700  0.81118400  1.0
  S  S18  1  0.64627500  0.25994800  0.99679300  1.0
  S  S19  1  0.14627500  0.74005200  0.49679300  1.0
