# generated using pymatgen
data_Sr2CuCO5
_symmetry_space_group_name_H-M   'P 1'
_cell_length_a   5.55671800
_cell_length_b   5.55671800
_cell_length_c   8.63180990
_cell_angle_alpha   108.77632818
_cell_angle_beta   108.77631414
_cell_angle_gamma   90.00000000
_symmetry_Int_Tables_number   1
_chemical_formula_structural   Sr2CuCO5
_chemical_formula_sum   'Sr4 Cu2 C2 O10'
_cell_volume   237.31143929
_cell_formula_units_Z   2
loop_
 _symmetry_equiv_pos_site_id
 _symmetry_equiv_pos_as_xyz
  1  'x, y, z'
loop_
 _atom_site_type_symbol
 _atom_site_label
 _atom_site_symmetry_multiplicity
 _atom_site_fract_x
 _atom_site_fract_y
 _atom_site_fract_z
 _atom_site_occupancy
  Sr  Sr0  1  0.88732200  0.38732200  0.77464400  1.0
  Sr  Sr1  1  0.61267800  0.11267800  0.22535600  1.0
  Sr  Sr2  1  0.38732200  0.88732200  0.77464400  1.0
  Sr  Sr3  1  0.11267800  0.61267800  0.22535600  1.0
  Cu  Cu4  1  0.00000000  0.00000000  0.00000000  1.0
  Cu  Cu5  1  0.50000000  0.50000000  0.00000000  1.0
  C  C6  1  0.24554500  0.24554600  0.49109100  1.0
  C  C7  1  0.75445500  0.75445400  0.50890900  1.0
  O  O8  1  0.24767300  0.74372600  0.99139900  1.0
  O  O9  1  0.75232700  0.75232800  0.00860100  1.0
  O  O10  1  0.43066200  0.43066200  0.57407900  1.0
  O  O11  1  0.16104100  0.16104100  0.32208200  1.0
  O  O12  1  0.14341700  0.14341700  0.57407900  1.0
  O  O13  1  0.74372700  0.24767200  0.99139900  1.0
  O  O14  1  0.25627300  0.25627400  0.00860100  1.0
  O  O15  1  0.56933800  0.85658300  0.42592100  1.0
  O  O16  1  0.83895900  0.83895900  0.67791800  1.0
  O  O17  1  0.85658300  0.56933800  0.42592100  1.0
