# generated using pymatgen
data_Sr2Fe2O5
_symmetry_space_group_name_H-M   'P 1'
_cell_length_a   5.60166200
_cell_length_b   5.77829600
_cell_length_c   8.83472244
_cell_angle_alpha   109.08811820
_cell_angle_beta   108.48312589
_cell_angle_gamma   90.00000001
_symmetry_Int_Tables_number   1
_chemical_formula_structural   Sr2Fe2O5
_chemical_formula_sum   'Sr4 Fe4 O10'
_cell_volume   254.57946179
_cell_formula_units_Z   2
loop_
 _symmetry_equiv_pos_site_id
 _symmetry_equiv_pos_as_xyz
  1  'x, y, z'
loop_
 _atom_site_type_symbol
 _atom_site_label
 _atom_site_symmetry_multiplicity
 _atom_site_fract_x
 _atom_site_fract_y
 _atom_site_fract_z
 _atom_site_occupancy
  Sr  Sr0  1  0.39567800  0.87191700  0.78314000  1.0
  Sr  Sr1  1  0.61253800  0.12808300  0.21686000  1.0
  Sr  Sr2  1  0.89567800  0.41122300  0.78314000  1.0
  Sr  Sr3  1  0.11253800  0.58877700  0.21686000  1.0
  Fe  Fe4  1  0.99902600  1.00000000  0.00000000  1.0
  Fe  Fe5  1  0.49902600  0.50000000  1.00000000  1.0
  Fe  Fe6  1  0.79334900  0.82191700  0.50000000  1.0
  Fe  Fe7  1  0.29334900  0.17808300  0.50000000  1.0
  O  O8  1  0.75844600  0.75544600  0.01611000  1.0
  O  O9  1  0.74233600  0.24455400  0.98389000  1.0
  O  O10  1  0.25844600  0.76066400  0.01611000  1.0
  O  O11  1  0.24233600  0.23933600  0.98389000  1.0
  O  O12  1  0.84386800  0.81081900  0.71957300  1.0
  O  O13  1  0.12429500  0.18918100  0.28042700  1.0
  O  O14  1  0.34386900  0.40875500  0.71957400  1.0
  O  O15  1  0.62429400  0.59124500  0.28042600  1.0
  O  O16  1  0.13728500  0.87890400  0.50000100  1.0
  O  O17  1  0.63728400  0.12109600  0.50000000  1.0
