# generated using pymatgen
data_Sr2FeWO6
_symmetry_space_group_name_H-M   'P 1'
_cell_length_a   5.64325205
_cell_length_b   5.67981900
_cell_length_c   5.73021431
_cell_angle_alpha   119.33022803
_cell_angle_beta   119.18658597
_cell_angle_gamma   90.55462584
_symmetry_Int_Tables_number   1
_chemical_formula_structural   Sr2FeWO6
_chemical_formula_sum   'Sr2 Fe1 W1 O6'
_cell_volume   132.13014603
_cell_formula_units_Z   1
loop_
 _symmetry_equiv_pos_site_id
 _symmetry_equiv_pos_as_xyz
  1  'x, y, z'
loop_
 _atom_site_type_symbol
 _atom_site_label
 _atom_site_symmetry_multiplicity
 _atom_site_fract_x
 _atom_site_fract_y
 _atom_site_fract_z
 _atom_site_occupancy
  Fe  Fe4  1  0.49994650  0.49988600  0.00003200  1.0
  O  O8  1  0.76506150  0.76487100  0.52601100  1.0
  O  O10  1  0.23496750  0.23518150  0.47397850  1.0
  O  O12  1  0.28795700  0.81306800  0.00093300  1.0
  O  O14  1  0.71208600  0.18697550  0.99906450  1.0
  O  O16  1  0.19366100  0.29062100  0.00308700  1.0
  O  O18  1  0.80630100  0.70939700  0.99689800  1.0
  Sr  Sr0  1  0.24907500  0.74978450  0.49920150  1.0
  Sr  Sr2  1  0.75093600  0.25025750  0.50078750  1.0
  W  W6  1  0.00000700  0.99995950  0.00000750  1.0
