# generated using pymatgen
data_Sr2HfFeO6
_symmetry_space_group_name_H-M   'P 1'
_cell_length_a   5.68308027
_cell_length_b   5.68291438
_cell_length_c   5.68291318
_cell_angle_alpha   89.51567452
_cell_angle_beta   60.28039281
_cell_angle_gamma   119.71957927
_symmetry_Int_Tables_number   1
_chemical_formula_structural   Sr2HfFeO6
_chemical_formula_sum   'Sr2 Hf1 Fe1 O6'
_cell_volume   130.32825871
_cell_formula_units_Z   1
loop_
 _symmetry_equiv_pos_site_id
 _symmetry_equiv_pos_as_xyz
  1  'x, y, z'
loop_
 _atom_site_type_symbol
 _atom_site_label
 _atom_site_symmetry_multiplicity
 _atom_site_fract_x
 _atom_site_fract_y
 _atom_site_fract_z
 _atom_site_occupancy
  Fe  Fe6  1  0.99999650  0.99999800  0.00000050  1.0
  Hf  Hf4  1  0.99999800  0.49999300  0.50000600  1.0
  O  O8  1  0.99999850  0.24318800  0.75681250  1.0
  O  O10  1  0.00000300  0.75680800  0.24319200  1.0
  O  O12  1  0.49112750  0.24556650  0.75443400  1.0
  O  O14  1  0.50887150  0.75443700  0.24556350  1.0
  O  O16  1  0.00000100  0.24555250  0.24554850  1.0
  O  O18  1  0.00000100  0.75445150  0.75444750  1.0
  Sr  Sr0  1  0.50000100  0.75000250  0.74999750  1.0
  Sr  Sr2  1  0.50000150  0.25000300  0.24999750  1.0
