# generated using pymatgen
data_Sr2H5Rh
_symmetry_space_group_name_H-M   'P 1'
_cell_length_a   5.35820200
_cell_length_b   5.44716166
_cell_length_c   5.35820200
_cell_angle_alpha   60.53878307
_cell_angle_beta   89.99999999
_cell_angle_gamma   119.46121693
_symmetry_Int_Tables_number   1
_chemical_formula_structural   Sr2H5Rh
_chemical_formula_sum   'Sr2 H5 Rh1'
_cell_volume   112.36125889
_cell_formula_units_Z   1
loop_
 _symmetry_equiv_pos_site_id
 _symmetry_equiv_pos_as_xyz
  1  'x, y, z'
loop_
 _atom_site_type_symbol
 _atom_site_label
 _atom_site_symmetry_multiplicity
 _atom_site_fract_x
 _atom_site_fract_y
 _atom_site_fract_z
 _atom_site_occupancy
  Sr  Sr0  1  0.74874600  0.49749200  0.75125400  1.0
  Sr  Sr1  1  0.24874600  0.49749200  0.25125400  1.0
  H  H2  1  0.77217400  0.98974200  0.22782600  1.0
  H  H3  1  0.21756800  0.98974200  0.22782600  1.0
  H  H4  1  0.77217400  0.98974200  0.78243200  1.0
  H  H5  1  0.21756800  0.98974200  0.78243200  1.0
  H  H6  1  0.23795200  0.47590400  0.76204800  1.0
  Rh  Rh7  1  0.00807000  0.01614000  0.99193000  1.0
