# generated using pymatgen
data_Sr2H6Pt
_symmetry_space_group_name_H-M   'P 1'
_cell_length_a   5.64217800
_cell_length_b   5.64518200
_cell_length_c   7.43617137
_cell_angle_alpha   90.00000000
_cell_angle_beta   112.29490319
_cell_angle_gamma   90.00000000
_symmetry_Int_Tables_number   1
_chemical_formula_structural   Sr2H6Pt
_chemical_formula_sum   'Sr4 H12 Pt2'
_cell_volume   219.14428508
_cell_formula_units_Z   2
loop_
 _symmetry_equiv_pos_site_id
 _symmetry_equiv_pos_as_xyz
  1  'x, y, z'
loop_
 _atom_site_type_symbol
 _atom_site_label
 _atom_site_symmetry_multiplicity
 _atom_site_fract_x
 _atom_site_fract_y
 _atom_site_fract_z
 _atom_site_occupancy
  Sr  Sr0  1  0.64605400  1.00000000  0.29210800  1.0
  Sr  Sr1  1  0.35394600  0.00000000  0.70789200  1.0
  Sr  Sr2  1  0.85394600  0.50000000  0.70789200  1.0
  Sr  Sr3  1  0.14605400  0.50000000  0.29210800  1.0
  H  H4  1  0.87881700  1.00000000  0.75763400  1.0
  H  H5  1  0.12118300  1.00000000  0.24236600  1.0
  H  H6  1  0.62118300  0.50000000  0.24236600  1.0
  H  H7  1  0.37881700  0.50000000  0.75763400  1.0
  H  H8  1  0.00125700  0.25000000  0.50000000  1.0
  H  H9  1  0.99874300  0.75000000  0.50000000  1.0
  H  H10  1  0.49874300  0.75000000  0.50000000  1.0
  H  H11  1  0.50125700  0.25000000  0.50000000  1.0
  H  H12  1  0.20697000  0.22019600  1.00000000  1.0
  H  H13  1  0.79303000  0.77980400  1.00000000  1.0
  H  H14  1  0.29303000  0.72019600  0.00000000  1.0
  H  H15  1  0.70697000  0.27980400  0.00000000  1.0
  Pt  Pt16  1  0.00000000  0.00000000  0.00000000  1.0
  Pt  Pt17  1  0.50000000  0.50000000  1.00000000  1.0
