# generated using pymatgen
data_Sr2In3Rh2
_symmetry_space_group_name_H-M   'P 1'
_cell_length_a   4.32980400
_cell_length_b   5.98336074
_cell_length_c   7.86689820
_cell_angle_alpha   69.18757494
_cell_angle_beta   74.02658486
_cell_angle_gamma   68.78796459
_symmetry_Int_Tables_number   1
_chemical_formula_structural   Sr2In3Rh2
_chemical_formula_sum   'Sr2 In3 Rh2'
_cell_volume   175.06769139
_cell_formula_units_Z   1
loop_
 _symmetry_equiv_pos_site_id
 _symmetry_equiv_pos_as_xyz
  1  'x, y, z'
loop_
 _atom_site_type_symbol
 _atom_site_label
 _atom_site_symmetry_multiplicity
 _atom_site_fract_x
 _atom_site_fract_y
 _atom_site_fract_z
 _atom_site_occupancy
  Sr  Sr0  1  0.14382300  0.48871700  0.22363700  1.0
  Sr  Sr1  1  0.85617700  0.51128300  0.77636300  1.0
  In  In2  1  0.50000000  0.00000000  1.00000000  1.0
  In  In3  1  0.35860200  0.83926600  0.44353000  1.0
  In  In4  1  0.64139800  0.16073400  0.55647000  1.0
  Rh  Rh5  1  0.12818700  0.95023900  0.79338700  1.0
  Rh  Rh6  1  0.87181300  0.04976100  0.20661300  1.0
