# generated using pymatgen
data_Sr2LaMn2O7
_symmetry_space_group_name_H-M   'P 1'
_cell_length_a   3.92586000
_cell_length_b   3.92586000
_cell_length_c   10.49962211
_cell_angle_alpha   100.77498539
_cell_angle_beta   100.77498540
_cell_angle_gamma   89.99999999
_symmetry_Int_Tables_number   1
_chemical_formula_structural   Sr2LaMn2O7
_chemical_formula_sum   'Sr2 La1 Mn2 O7'
_cell_volume   156.06572704
_cell_formula_units_Z   1
loop_
 _symmetry_equiv_pos_site_id
 _symmetry_equiv_pos_as_xyz
  1  'x, y, z'
loop_
 _atom_site_type_symbol
 _atom_site_label
 _atom_site_symmetry_multiplicity
 _atom_site_fract_x
 _atom_site_fract_y
 _atom_site_fract_z
 _atom_site_occupancy
  Sr  Sr0  1  0.31884400  0.31884400  0.63768800  1.0
  Sr  Sr1  1  0.49543200  0.49543200  0.99086400  1.0
  La  La2  1  0.68301600  0.68301600  0.36603200  1.0
  Mn  Mn3  1  0.90183700  0.90183700  0.80367400  1.0
  Mn  Mn4  1  0.09568900  0.09568900  0.19137800  1.0
  O  O5  1  0.79876600  0.79876600  0.59753200  1.0
  O  O6  1  0.19606500  0.19606500  0.39213000  1.0
  O  O7  1  0.90250500  0.40250500  0.80501000  1.0
  O  O8  1  0.40250500  0.90250500  0.80501000  1.0
  O  O9  1  0.10220500  0.60220500  0.20441000  1.0
  O  O10  1  0.60220500  0.10220500  0.20441000  1.0
  O  O11  1  0.00093000  0.00093000  0.00186000  1.0
