# generated using pymatgen
data_Sr2Mg
_symmetry_space_group_name_H-M   'P 1'
_cell_length_a   4.10663800
_cell_length_b   6.25326200
_cell_length_c   10.23372440
_cell_angle_alpha   90.00000000
_cell_angle_beta   101.57452720
_cell_angle_gamma   90.00000000
_symmetry_Int_Tables_number   1
_chemical_formula_structural   Sr2Mg
_chemical_formula_sum   'Sr4 Mg2'
_cell_volume   257.45667501
_cell_formula_units_Z   2
loop_
 _symmetry_equiv_pos_site_id
 _symmetry_equiv_pos_as_xyz
  1  'x, y, z'
loop_
 _atom_site_type_symbol
 _atom_site_label
 _atom_site_symmetry_multiplicity
 _atom_site_fract_x
 _atom_site_fract_y
 _atom_site_fract_z
 _atom_site_occupancy
  Sr  Sr0  1  0.08388000  0.25000000  0.16776000  1.0
  Sr  Sr1  1  0.78921200  0.25000000  0.57842400  1.0
  Sr  Sr2  1  0.21078800  0.75000000  0.42157600  1.0
  Sr  Sr3  1  0.91612000  0.75000000  0.83224000  1.0
  Mg  Mg4  1  0.43956100  0.25000000  0.87912200  1.0
  Mg  Mg5  1  0.56043900  0.75000000  0.12087800  1.0
