# generated using pymatgen
data_Sr2NiWO6
_symmetry_space_group_name_H-M   'P 1'
_cell_length_a   5.66841650
_cell_length_b   5.66832007
_cell_length_c   5.66836739
_cell_angle_alpha   89.99801109
_cell_angle_beta   120.00077137
_cell_angle_gamma   120.00003053
_symmetry_Int_Tables_number   1
_chemical_formula_structural   Sr2NiWO6
_chemical_formula_sum   'Sr2 Ni1 W1 O6'
_cell_volume   128.78384444
_cell_formula_units_Z   1
loop_
 _symmetry_equiv_pos_site_id
 _symmetry_equiv_pos_as_xyz
  1  'x, y, z'
loop_
 _atom_site_type_symbol
 _atom_site_label
 _atom_site_symmetry_multiplicity
 _atom_site_fract_x
 _atom_site_fract_y
 _atom_site_fract_z
 _atom_site_occupancy
  Ni  Ni4  1  0.00000000  0.50000300  0.50000100  1.0
  O  O8  1  0.51483900  0.75741000  0.75741150  1.0
  O  O10  1  0.99998150  0.75741050  0.75741050  1.0
  O  O12  1  0.00001700  0.24258800  0.24259050  1.0
  O  O14  1  0.00000650  0.24258250  0.75742000  1.0
  O  O16  1  0.48516150  0.24258850  0.24259100  1.0
  O  O18  1  0.99999400  0.75741700  0.24258100  1.0
  Sr  Sr0  1  0.49999400  0.75000100  0.24999700  1.0
  Sr  Sr2  1  0.50000550  0.24999750  0.75000300  1.0
  W  W6  1  0.99999950  0.99999950  1.00000000  1.0
