# generated using pymatgen
data_Sr2NiRuO6
_symmetry_space_group_name_H-M   'P 1'
_cell_length_a   5.61058296
_cell_length_b   5.61054195
_cell_length_c   5.61076715
_cell_angle_alpha   59.99780498
_cell_angle_beta   59.99755487
_cell_angle_gamma   89.99334943
_symmetry_Int_Tables_number   1
_chemical_formula_structural   Sr2NiRuO6
_chemical_formula_sum   'Sr2 Ni1 Ru1 O6'
_cell_volume   124.88629800
_cell_formula_units_Z   1
loop_
 _symmetry_equiv_pos_site_id
 _symmetry_equiv_pos_as_xyz
  1  'x, y, z'
loop_
 _atom_site_type_symbol
 _atom_site_label
 _atom_site_symmetry_multiplicity
 _atom_site_fract_x
 _atom_site_fract_y
 _atom_site_fract_z
 _atom_site_occupancy
  Ni  Ni4  1  0.00000000  0.00000000  0.00000000  1.0
  O  O8  1  0.25628700  0.74371300  0.00000000  1.0
  O  O10  1  0.74370150  0.74370150  0.99999950  1.0
  O  O12  1  0.25629350  0.25629350  0.48741300  1.0
  O  O14  1  0.74371300  0.25628700  0.00000000  1.0
  O  O16  1  0.25629850  0.25629850  0.00000050  1.0
  O  O18  1  0.74370650  0.74370650  0.51258700  1.0
  Ru  Ru6  1  0.50000000  0.50000000  0.00000000  1.0
  Sr  Sr0  1  0.25000000  0.75000000  0.50000000  1.0
  Sr  Sr2  1  0.75000000  0.25000000  0.50000000  1.0
