# generated using pymatgen
data_Sr2NiMoO6
_symmetry_space_group_name_H-M   'P 1'
_cell_length_a   5.61249180
_cell_length_b   5.61246145
_cell_length_c   5.65606622
_cell_angle_alpha   60.25451882
_cell_angle_beta   60.25460030
_cell_angle_gamma   89.99986539
_symmetry_Int_Tables_number   1
_chemical_formula_structural   Sr2NiMoO6
_chemical_formula_sum   'Sr2 Ni1 Mo1 O6'
_cell_volume   126.94545901
_cell_formula_units_Z   1
loop_
 _symmetry_equiv_pos_site_id
 _symmetry_equiv_pos_as_xyz
  1  'x, y, z'
loop_
 _atom_site_type_symbol
 _atom_site_label
 _atom_site_symmetry_multiplicity
 _atom_site_fract_x
 _atom_site_fract_y
 _atom_site_fract_z
 _atom_site_occupancy
  Mo  Mo6  1  1.00000000  0.00000000  1.00000000  1.0
  Ni  Ni4  1  0.50000000  0.50000000  0.00000000  1.0
  O  O8  1  0.24176400  0.24176200  0.51647150  1.0
  O  O10  1  0.75823600  0.75823800  0.48352850  1.0
  O  O12  1  0.28240300  0.20083500  0.99999700  1.0
  O  O14  1  0.20083800  0.71760100  0.00000050  1.0
  O  O16  1  0.79916200  0.28239900  0.99999950  1.0
  O  O18  1  0.71759700  0.79916500  0.00000300  1.0
  Sr  Sr0  1  0.25000000  0.75000100  0.50000000  1.0
  Sr  Sr2  1  0.75000000  0.24999900  0.50000000  1.0
