# generated using pymatgen
data_Sr2NdMn2O7
_symmetry_space_group_name_H-M   'P 1'
_cell_length_a   3.91207600
_cell_length_b   3.91207600
_cell_length_c   10.46691012
_cell_angle_alpha   100.77065906
_cell_angle_beta   100.77065906
_cell_angle_gamma   90.00000000
_symmetry_Int_Tables_number   1
_chemical_formula_structural   Sr2NdMn2O7
_chemical_formula_sum   'Sr2 Nd1 Mn2 O7'
_cell_volume   154.49351838
_cell_formula_units_Z   1
loop_
 _symmetry_equiv_pos_site_id
 _symmetry_equiv_pos_as_xyz
  1  'x, y, z'
loop_
 _atom_site_type_symbol
 _atom_site_label
 _atom_site_symmetry_multiplicity
 _atom_site_fract_x
 _atom_site_fract_y
 _atom_site_fract_z
 _atom_site_occupancy
  Sr  Sr0  1  0.50525100  0.50525100  0.01050200  1.0
  Sr  Sr1  1  0.68254300  0.68254300  0.36508600  1.0
  Nd  Nd2  1  0.31780100  0.31780100  0.63560200  1.0
  Mn  Mn3  1  0.90342900  0.90342900  0.80685800  1.0
  Mn  Mn4  1  0.09898600  0.09898600  0.19797200  1.0
  O  O5  1  0.80379300  0.80379300  0.60758600  1.0
  O  O6  1  0.20268700  0.20268700  0.40537400  1.0
  O  O7  1  0.89583000  0.39583000  0.79166000  1.0
  O  O8  1  0.39583000  0.89583000  0.79166000  1.0
  O  O9  1  0.09764300  0.59764300  0.19528600  1.0
  O  O10  1  0.59764300  0.09764300  0.19528600  1.0
  O  O11  1  0.99856300  0.99856300  0.99712600  1.0
