# generated using pymatgen
data_Sr2ScGaO5
_symmetry_space_group_name_H-M   'P 1'
_cell_length_a   5.75879100
_cell_length_b   5.98075600
_cell_length_c   8.69188640
_cell_angle_alpha   110.12335506
_cell_angle_beta   109.34611355
_cell_angle_gamma   90.00000000
_symmetry_Int_Tables_number   1
_chemical_formula_structural   Sr2ScGaO5
_chemical_formula_sum   'Sr4 Sc2 Ga2 O10'
_cell_volume   263.01458038
_cell_formula_units_Z   2
loop_
 _symmetry_equiv_pos_site_id
 _symmetry_equiv_pos_as_xyz
  1  'x, y, z'
loop_
 _atom_site_type_symbol
 _atom_site_label
 _atom_site_symmetry_multiplicity
 _atom_site_fract_x
 _atom_site_fract_y
 _atom_site_fract_z
 _atom_site_occupancy
  Sr  Sr0  1  0.88502600  0.40937500  0.77719800  1.0
  Sr  Sr1  1  0.10782800  0.59062500  0.22280200  1.0
  Sr  Sr2  1  0.60782800  0.13217700  0.22280200  1.0
  Sr  Sr3  1  0.38502600  0.86782300  0.77719800  1.0
  Sc  Sc4  1  0.50106700  0.50000000  0.00000000  1.0
  Sc  Sc5  1  0.00106700  0.00000000  0.00000000  1.0
  Ga  Ga6  1  0.71833200  0.82151300  0.50000000  1.0
  Ga  Ga7  1  0.21833200  0.17848700  0.50000000  1.0
  O  O8  1  0.76110100  0.76502200  0.02382000  1.0
  O  O9  1  0.73728100  0.23497800  0.97618000  1.0
  O  O10  1  0.23728100  0.24120200  0.97618000  1.0
  O  O11  1  0.26110100  0.75879800  0.02382000  1.0
  O  O12  1  0.37543100  0.42347800  0.71216600  1.0
  O  O13  1  0.66326400  0.57652200  0.28783400  1.0
  O  O14  1  0.16326400  0.21131300  0.28783400  1.0
  O  O15  1  0.87543100  0.78868700  0.71216600  1.0
  O  O16  1  0.89517100  0.09285600  0.50000000  1.0
  O  O17  1  0.39517100  0.90714400  0.50000000  1.0
