# generated using pymatgen
data_Sr2Ti2O5
_symmetry_space_group_name_H-M   'P 1'
_cell_length_a   3.94003700
_cell_length_b   5.57437512
_cell_length_c   5.57437512
_cell_angle_alpha   90.98273954
_cell_angle_beta   90.00000000
_cell_angle_gamma   90.00000000
_symmetry_Int_Tables_number   1
_chemical_formula_structural   Sr2Ti2O5
_chemical_formula_sum   'Sr2 Ti2 O5'
_cell_volume   122.41335341
_cell_formula_units_Z   1
loop_
 _symmetry_equiv_pos_site_id
 _symmetry_equiv_pos_as_xyz
  1  'x, y, z'
loop_
 _atom_site_type_symbol
 _atom_site_label
 _atom_site_symmetry_multiplicity
 _atom_site_fract_x
 _atom_site_fract_y
 _atom_site_fract_z
 _atom_site_occupancy
  Sr  Sr0  1  0.00000000  0.24649600  0.75350400  1.0
  Sr  Sr1  1  1.00000000  0.75350400  0.24649600  1.0
  Ti  Ti2  1  0.50000000  0.75039900  0.75039900  1.0
  Ti  Ti3  1  0.50000000  0.24960100  0.24960100  1.0
  O  O4  1  0.50000000  0.50000000  0.00000000  1.0
  O  O5  1  0.50000000  0.00000000  0.50000000  1.0
  O  O6  1  1.00000000  0.72519700  0.72519700  1.0
  O  O7  1  0.00000000  0.27480300  0.27480300  1.0
  O  O8  1  0.50000000  0.00000000  0.00000000  1.0
