# generated using pymatgen
data_Sr2TiMnO6
_symmetry_space_group_name_H-M   'P 1'
_cell_length_a   5.50737750
_cell_length_b   5.50737700
_cell_length_c   5.50847976
_cell_angle_alpha   119.99337790
_cell_angle_beta   119.99337488
_cell_angle_gamma   90.00000522
_symmetry_Int_Tables_number   1
_chemical_formula_structural   Sr2TiMnO6
_chemical_formula_sum   'Sr2 Ti1 Mn1 O6'
_cell_volume   118.16621621
_cell_formula_units_Z   1
loop_
 _symmetry_equiv_pos_site_id
 _symmetry_equiv_pos_as_xyz
  1  'x, y, z'
loop_
 _atom_site_type_symbol
 _atom_site_label
 _atom_site_symmetry_multiplicity
 _atom_site_fract_x
 _atom_site_fract_y
 _atom_site_fract_z
 _atom_site_occupancy
  Mn  Mn6  1  0.00000000  0.00000000  0.00000000  1.0
  O  O8  1  0.75257900  0.75258000  0.50515900  1.0
  O  O10  1  0.24742100  0.24742000  0.49484100  1.0
  O  O12  1  0.25454600  0.24036700  0.00000000  1.0
  O  O14  1  0.74545400  0.75963300  0.00000000  1.0
  O  O16  1  0.24036800  0.74545400  1.00000000  1.0
  O  O18  1  0.75963200  0.25454600  0.00000000  1.0
  Sr  Sr0  1  0.25000000  0.75000000  0.50000000  1.0
  Sr  Sr2  1  0.75000000  0.25000000  0.50000000  1.0
  Ti  Ti4  1  0.50000000  0.50000000  0.00000000  1.0
