# generated using pymatgen
data_Sr2TiFeO6
_symmetry_space_group_name_H-M   'P 1'
_cell_length_a   5.57381025
_cell_length_b   5.57362780
_cell_length_c   5.57381520
_cell_angle_alpha   119.99356678
_cell_angle_beta   90.01307633
_cell_angle_gamma   119.99352897
_symmetry_Int_Tables_number   1
_chemical_formula_structural   Sr2TiFeO6
_chemical_formula_sum   'Sr2 Ti1 Fe1 O6'
_cell_volume   122.45114464
_cell_formula_units_Z   1
loop_
 _symmetry_equiv_pos_site_id
 _symmetry_equiv_pos_as_xyz
  1  'x, y, z'
loop_
 _atom_site_type_symbol
 _atom_site_label
 _atom_site_symmetry_multiplicity
 _atom_site_fract_x
 _atom_site_fract_y
 _atom_site_fract_z
 _atom_site_occupancy
  Sr  Sr0  1  0.75000000  0.50000000  0.25000000  1.0
  Sr  Sr1  1  0.25000000  0.50000000  0.75000000  1.0
  Ti  Ti2  1  0.50000000  0.00000000  0.50000000  1.0
  Fe  Fe3  1  0.00000000  0.00000000  0.00000000  1.0
  O  O4  1  0.74871500  0.49743000  0.74871500  1.0
  O  O5  1  0.25128200  0.00000000  0.25128200  1.0
  O  O6  1  0.74870300  0.00000000  0.25129700  1.0
  O  O7  1  0.25128500  0.50257000  0.25128500  1.0
  O  O8  1  0.74871800  0.00000000  0.74871800  1.0
  O  O9  1  0.25129700  0.00000000  0.74870300  1.0
