# generated using pymatgen
data_Sr2TmNbO6
_symmetry_space_group_name_H-M   'P 1'
_cell_length_a   5.90626400
_cell_length_b   5.91553827
_cell_length_c   5.91553827
_cell_angle_alpha   60.26805774
_cell_angle_beta   60.05184826
_cell_angle_gamma   60.05184826
_symmetry_Int_Tables_number   1
_chemical_formula_structural   Sr2TmNbO6
_chemical_formula_sum   'Sr2 Tm1 Nb1 O6'
_cell_volume   146.55471009
_cell_formula_units_Z   1
loop_
 _symmetry_equiv_pos_site_id
 _symmetry_equiv_pos_as_xyz
  1  'x, y, z'
loop_
 _atom_site_type_symbol
 _atom_site_label
 _atom_site_symmetry_multiplicity
 _atom_site_fract_x
 _atom_site_fract_y
 _atom_site_fract_z
 _atom_site_occupancy
  Nb  Nb6  1  0.00323900  0.00000000  0.00000000  1.0
  O  O8  1  0.77420800  0.74973200  0.25026800  1.0
  O  O9  1  0.74224100  0.23968000  0.23968000  1.0
  O  O10  1  0.77420800  0.25026800  0.74973200  1.0
  O  O11  1  0.22160100  0.76032000  0.76032000  1.0
  O  O14  1  0.25230500  0.23056900  0.76943100  1.0
  O  O17  1  0.25230500  0.76943100  0.23056900  1.0
  Sr  Sr0  1  0.75583900  0.74838100  0.74838100  1.0
  Sr  Sr2  1  0.25260100  0.25161900  0.25161900  1.0
  Tm  Tm4  1  0.50365300  0.50000000  0.50000000  1.0
