# generated using pymatgen
data_Sr2UFeO6
_symmetry_space_group_name_H-M   'P 1'
_cell_length_a   5.89904700
_cell_length_b   5.97978500
_cell_length_c   8.18846457
_cell_angle_alpha   90.00000000
_cell_angle_beta   89.75222375
_cell_angle_gamma   90.00000000
_symmetry_Int_Tables_number   1
_chemical_formula_structural   Sr2UFeO6
_chemical_formula_sum   'Sr4 U2 Fe2 O12'
_cell_volume   288.84565509
_cell_formula_units_Z   2
loop_
 _symmetry_equiv_pos_site_id
 _symmetry_equiv_pos_as_xyz
  1  'x, y, z'
loop_
 _atom_site_type_symbol
 _atom_site_label
 _atom_site_symmetry_multiplicity
 _atom_site_fract_x
 _atom_site_fract_y
 _atom_site_fract_z
 _atom_site_occupancy
  Sr  Sr0  1  0.50923300  0.45856400  0.75125900  1.0
  Sr  Sr1  1  0.00923300  0.04143600  0.25125900  1.0
  Sr  Sr2  1  0.49076700  0.54143600  0.24874100  1.0
  Sr  Sr3  1  0.99076700  0.95856400  0.74874100  1.0
  U  U4  1  1.00000000  0.50000000  0.00000000  1.0
  U  U5  1  0.50000000  0.00000000  0.50000000  1.0
  Fe  Fe6  1  0.50000000  0.00000000  1.00000000  1.0
  Fe  Fe7  1  1.00000000  0.50000000  0.50000000  1.0
  O  O8  1  0.21988700  0.79708500  0.45686300  1.0
  O  O9  1  0.79764500  0.22046400  0.95516300  1.0
  O  O10  1  0.20235500  0.77953600  0.04483700  1.0
  O  O11  1  0.28011300  0.29708500  0.04313700  1.0
  O  O12  1  0.71988700  0.70291500  0.95686300  1.0
  O  O13  1  0.29764500  0.27953600  0.45516300  1.0
  O  O14  1  0.91594200  0.47676500  0.25130600  1.0
  O  O15  1  0.58405800  0.97676500  0.24869400  1.0
  O  O16  1  0.78011300  0.20291500  0.54313700  1.0
  O  O17  1  0.70235500  0.72046400  0.54483700  1.0
  O  O18  1  0.41594200  0.02323500  0.75130600  1.0
  O  O19  1  0.08405800  0.52323500  0.74869400  1.0
