# generated using pymatgen
data_Sr2YTaO6
_symmetry_space_group_name_H-M   'P 1'
_cell_length_a   5.85324200
_cell_length_b   5.94446300
_cell_length_c   8.32294525
_cell_angle_alpha   90.00000000
_cell_angle_beta   89.80288788
_cell_angle_gamma   90.00000000
_symmetry_Int_Tables_number   1
_chemical_formula_structural   Sr2YTaO6
_chemical_formula_sum   'Sr4 Y2 Ta2 O12'
_cell_volume   289.59001019
_cell_formula_units_Z   2
loop_
 _symmetry_equiv_pos_site_id
 _symmetry_equiv_pos_as_xyz
  1  'x, y, z'
loop_
 _atom_site_type_symbol
 _atom_site_label
 _atom_site_symmetry_multiplicity
 _atom_site_fract_x
 _atom_site_fract_y
 _atom_site_fract_z
 _atom_site_occupancy
  Sr  Sr0  1  0.00873700  0.46277800  0.24940600  1.0
  Sr  Sr1  1  0.49126300  0.96277800  0.25059400  1.0
  Sr  Sr2  1  0.50873700  0.03722200  0.74940600  1.0
  Sr  Sr3  1  0.99126300  0.53722200  0.75059400  1.0
  Y  Y4  1  0.00000000  0.00000000  0.00000000  1.0
  Y  Y5  1  0.50000000  0.50000000  0.50000000  1.0
  Ta  Ta6  1  0.50000000  0.50000000  0.00000000  1.0
  Ta  Ta7  1  1.00000000  0.00000000  0.50000000  1.0
  O  O8  1  0.19383400  0.72569600  0.45415000  1.0
  O  O9  1  0.30616600  0.22569600  0.04585000  1.0
  O  O10  1  0.80616600  0.27430400  0.54585000  1.0
  O  O11  1  0.69383400  0.77430400  0.95415000  1.0
  O  O12  1  0.27401100  0.19656300  0.45861900  1.0
  O  O13  1  0.22598900  0.69656300  0.04138100  1.0
  O  O14  1  0.72598900  0.80343700  0.54138100  1.0
  O  O15  1  0.77401100  0.30343700  0.95861900  1.0
  O  O16  1  0.91789800  0.02530200  0.26568200  1.0
  O  O17  1  0.58210200  0.52530200  0.23431800  1.0
  O  O18  1  0.08210200  0.97469800  0.73431800  1.0
  O  O19  1  0.41789800  0.47469800  0.76568200  1.0
