# generated using pymatgen
data_Sr3Fe2O7
_symmetry_space_group_name_H-M   'P 1'
_cell_length_a   3.90813740
_cell_length_b   3.90813754
_cell_length_c   10.54300484
_cell_angle_alpha   100.68110651
_cell_angle_beta   100.68111277
_cell_angle_gamma   90.00000232
_symmetry_Int_Tables_number   1
_chemical_formula_structural   Sr3Fe2O7
_chemical_formula_sum   'Sr3 Fe2 O7'
_cell_volume   155.39891669
_cell_formula_units_Z   1
loop_
 _symmetry_equiv_pos_site_id
 _symmetry_equiv_pos_as_xyz
  1  'x, y, z'
loop_
 _atom_site_type_symbol
 _atom_site_label
 _atom_site_symmetry_multiplicity
 _atom_site_fract_x
 _atom_site_fract_y
 _atom_site_fract_z
 _atom_site_occupancy
  Sr  Sr0  1  0.68300100  0.68300100  0.36600000  1.0
  Sr  Sr1  1  0.31700200  0.31700000  0.63400100  1.0
  Sr  Sr2  1  0.49999900  0.50000000  0.00000000  1.0
  Fe  Fe3  1  0.90271900  0.90272000  0.80543900  1.0
  Fe  Fe4  1  0.09728000  0.09728100  0.19456100  1.0
  O  O5  1  0.00000000  0.00000000  0.00000000  1.0
  O  O6  1  0.80618200  0.80618200  0.61236500  1.0
  O  O7  1  0.19381700  0.19381600  0.38763500  1.0
  O  O8  1  0.40442400  0.90442300  0.80884700  1.0
  O  O9  1  0.90442300  0.40442400  0.80884700  1.0
  O  O10  1  0.09557700  0.59557700  0.19115300  1.0
  O  O11  1  0.59557500  0.09557800  0.19115300  1.0
