# generated using pymatgen
data_Sr3NbN3
_symmetry_space_group_name_H-M   'P 1'
_cell_length_a   5.50774300
_cell_length_b   7.96704860
_cell_length_c   7.96716293
_cell_angle_alpha   119.99920918
_cell_angle_beta   90.00000000
_cell_angle_gamma   90.00000000
_symmetry_Int_Tables_number   1
_chemical_formula_structural   Sr3NbN3
_chemical_formula_sum   'Sr6 Nb2 N6'
_cell_volume   302.76727002
_cell_formula_units_Z   2
loop_
 _symmetry_equiv_pos_site_id
 _symmetry_equiv_pos_as_xyz
  1  'x, y, z'
loop_
 _atom_site_type_symbol
 _atom_site_label
 _atom_site_symmetry_multiplicity
 _atom_site_fract_x
 _atom_site_fract_y
 _atom_site_fract_z
 _atom_site_occupancy
  Sr  Sr0  1  0.75000000  0.11779300  0.76131800  1.0
  Sr  Sr1  1  0.75000000  0.23869600  0.35649000  1.0
  Sr  Sr2  1  0.75000000  0.64351500  0.88220500  1.0
  Sr  Sr3  1  0.25000000  0.88220700  0.23868200  1.0
  Sr  Sr4  1  0.25000000  0.76130400  0.64351000  1.0
  Sr  Sr5  1  0.25000000  0.35648500  0.11779500  1.0
  Nb  Nb6  1  0.25000000  0.33333333  0.66666667  1.0
  Nb  Nb7  1  0.75000000  0.66666667  0.33333333  1.0
  N  N8  1  0.25000000  0.13547100  0.74474100  1.0
  N  N9  1  0.25000000  0.25527000  0.39074600  1.0
  N  N10  1  0.25000000  0.60925700  0.86452600  1.0
  N  N11  1  0.75000000  0.86452900  0.25525900  1.0
  N  N12  1  0.75000000  0.74473000  0.60925400  1.0
  N  N13  1  0.75000000  0.39074300  0.13547400  1.0
