# generated using pymatgen
data_Sr3Nd(CoO4)2
_symmetry_space_group_name_H-M   'P 1'
_cell_length_a   5.39384100
_cell_length_b   5.42734000
_cell_length_c   6.80857996
_cell_angle_alpha   66.51142327
_cell_angle_beta   90.00000000
_cell_angle_gamma   90.00000000
_symmetry_Int_Tables_number   1
_chemical_formula_structural   Sr3Nd(CoO4)2
_chemical_formula_sum   'Sr3 Nd1 Co2 O8'
_cell_volume   182.80039786
_cell_formula_units_Z   1
loop_
 _symmetry_equiv_pos_site_id
 _symmetry_equiv_pos_as_xyz
  1  'x, y, z'
loop_
 _atom_site_type_symbol
 _atom_site_label
 _atom_site_symmetry_multiplicity
 _atom_site_fract_x
 _atom_site_fract_y
 _atom_site_fract_z
 _atom_site_occupancy
  Sr  Sr0  1  1.00000000  0.64344800  0.71310400  1.0
  Sr  Sr1  1  0.00000000  0.35885500  0.28229000  1.0
  Sr  Sr2  1  0.50000000  0.85583800  0.28832400  1.0
  Nd  Nd3  1  0.50000000  0.13738800  0.72522400  1.0
  Co  Co4  1  0.50000000  0.49828300  0.00343400  1.0
  Co  Co5  1  0.00000000  0.99860200  0.00279600  1.0
  O  O6  1  1.00000000  0.84546100  0.30907800  1.0
  O  O7  1  0.50000000  0.32633700  0.34732600  1.0
  O  O8  1  0.50000000  0.66196300  0.67607400  1.0
  O  O9  1  1.00000000  0.15845900  0.68308200  1.0
  O  O10  1  0.25431000  0.24644400  0.99231700  1.0
  O  O11  1  0.74569000  0.76123900  0.99231700  1.0
  O  O12  1  0.74569000  0.24644400  0.99231700  1.0
  O  O13  1  0.25431000  0.76123900  0.99231700  1.0
