# generated using pymatgen
data_Sr3Sm(CoO4)2
_symmetry_space_group_name_H-M   'P 1'
_cell_length_a   5.35724600
_cell_length_b   5.38218900
_cell_length_c   6.84721306
_cell_angle_alpha   90.00000000
_cell_angle_beta   113.02912616
_cell_angle_gamma   90.00000000
_symmetry_Int_Tables_number   1
_chemical_formula_structural   Sr3Sm(CoO4)2
_chemical_formula_sum   'Sr3 Sm1 Co2 O8'
_cell_volume   181.69654922
_cell_formula_units_Z   1
loop_
 _symmetry_equiv_pos_site_id
 _symmetry_equiv_pos_as_xyz
  1  'x, y, z'
loop_
 _atom_site_type_symbol
 _atom_site_label
 _atom_site_symmetry_multiplicity
 _atom_site_fract_x
 _atom_site_fract_y
 _atom_site_fract_z
 _atom_site_occupancy
  Sr  Sr0  1  0.64665100  0.00000000  0.29330200  1.0
  Sr  Sr1  1  0.35574800  0.00000000  0.71149600  1.0
  Sr  Sr2  1  0.85454400  0.50000000  0.70908800  1.0
  Sm  Sm3  1  0.13818400  0.50000000  0.27636800  1.0
  Co  Co4  1  0.49941500  0.50000000  0.99883000  1.0
  Co  Co5  1  0.99983000  0.00000000  0.99966000  1.0
  O  O6  1  0.84377600  1.00000000  0.68755200  1.0
  O  O7  1  0.32144800  0.50000000  0.64289600  1.0
  O  O8  1  0.66152400  0.50000000  0.32304800  1.0
  O  O9  1  0.15950300  1.00000000  0.31900600  1.0
  O  O10  1  0.24819000  0.25089400  0.00968900  1.0
  O  O11  1  0.76149900  0.74910600  0.00968900  1.0
  O  O12  1  0.24819000  0.74910600  0.00968900  1.0
  O  O13  1  0.76149900  0.25089400  0.00968900  1.0
