# generated using pymatgen
data_Sr4Ti3O10
_symmetry_space_group_name_H-M   'P 1'
_cell_length_a   3.94301200
_cell_length_b   3.94301200
_cell_length_c   14.46952996
_cell_angle_alpha   97.83103762
_cell_angle_beta   97.83103760
_cell_angle_gamma   90.00000005
_symmetry_Int_Tables_number   1
_chemical_formula_structural   Sr4Ti3O10
_chemical_formula_sum   'Sr4 Ti3 O10'
_cell_volume   220.74689084
_cell_formula_units_Z   1
loop_
 _symmetry_equiv_pos_site_id
 _symmetry_equiv_pos_as_xyz
  1  'x, y, z'
loop_
 _atom_site_type_symbol
 _atom_site_label
 _atom_site_symmetry_multiplicity
 _atom_site_fract_x
 _atom_site_fract_y
 _atom_site_fract_z
 _atom_site_occupancy
  Sr  Sr0  1  0.56833200  0.56833200  0.13666400  1.0
  Sr  Sr1  1  0.43166800  0.43166800  0.86333600  1.0
  Sr  Sr2  1  0.29773800  0.29773800  0.59547600  1.0
  Sr  Sr3  1  0.70226200  0.70226200  0.40452400  1.0
  Ti  Ti4  1  0.00000000  0.00000000  0.00000000  1.0
  Ti  Ti5  1  0.85984600  0.85984600  0.71969200  1.0
  Ti  Ti6  1  0.14015400  0.14015400  0.28030800  1.0
  O  O7  1  0.63888700  0.13888700  0.27777400  1.0
  O  O8  1  0.79066600  0.79066600  0.58133200  1.0
  O  O9  1  0.20933400  0.20933400  0.41866800  1.0
  O  O10  1  1.00000000  0.50000000  0.00000000  1.0
  O  O11  1  0.50000000  0.00000000  0.00000000  1.0
  O  O12  1  0.06941000  0.06941000  0.13882000  1.0
  O  O13  1  0.93059000  0.93059000  0.86118000  1.0
  O  O14  1  0.13888700  0.63888700  0.27777400  1.0
  O  O15  1  0.86111300  0.36111300  0.72222600  1.0
  O  O16  1  0.36111300  0.86111300  0.72222600  1.0
