# generated using pymatgen
data_Sr5As3H
_symmetry_space_group_name_H-M   'P 1'
_cell_length_a   7.16251100
_cell_length_b   9.00173800
_cell_length_c   9.00173819
_cell_angle_alpha   60.00000068
_cell_angle_beta   90.00000000
_cell_angle_gamma   90.00000000
_symmetry_Int_Tables_number   1
_chemical_formula_structural   Sr5As3H
_chemical_formula_sum   'Sr10 As6 H2'
_cell_volume   502.63032006
_cell_formula_units_Z   2
loop_
 _symmetry_equiv_pos_site_id
 _symmetry_equiv_pos_as_xyz
  1  'x, y, z'
loop_
 _atom_site_type_symbol
 _atom_site_label
 _atom_site_symmetry_multiplicity
 _atom_site_fract_x
 _atom_site_fract_y
 _atom_site_fract_z
 _atom_site_occupancy
  Sr  Sr0  1  0.75000000  0.24876800  0.00000000  1.0
  Sr  Sr1  1  0.25000000  0.00000000  0.24876800  1.0
  Sr  Sr2  1  0.75000000  0.75123200  0.24876800  1.0
  Sr  Sr3  1  0.25000000  0.24876800  0.75123200  1.0
  Sr  Sr4  1  0.25000000  0.75123200  1.00000000  1.0
  Sr  Sr5  1  0.75000000  0.00000000  0.75123200  1.0
  Sr  Sr6  1  0.50000000  0.33333333  0.33333333  1.0
  Sr  Sr7  1  0.00000000  0.66666667  0.66666667  1.0
  Sr  Sr8  1  0.50000000  0.66666667  0.66666667  1.0
  Sr  Sr9  1  0.00000000  0.33333333  0.33333333  1.0
  As  As10  1  0.25000000  0.00000000  0.60714200  1.0
  As  As11  1  0.75000000  0.60714200  0.00000000  1.0
  As  As12  1  0.75000000  0.39285800  0.60714200  1.0
  As  As13  1  0.25000000  0.60714200  0.39285800  1.0
  As  As14  1  0.25000000  0.39285800  0.00000000  1.0
  As  As15  1  0.75000000  0.00000000  0.39285800  1.0
  H  H16  1  0.50000000  0.00000000  0.00000000  1.0
  H  H17  1  0.00000000  0.00000000  0.00000000  1.0
