# generated using pymatgen
data_Sr8Mn3N8
_symmetry_space_group_name_H-M   'P 1'
_cell_length_a   5.33334710
_cell_length_b   7.54439214
_cell_length_c   9.78532430
_cell_angle_alpha   105.82893295
_cell_angle_beta   105.81413428
_cell_angle_gamma   90.00000215
_symmetry_Int_Tables_number   1
_chemical_formula_structural   Sr8Mn3N8
_chemical_formula_sum   'Sr8 Mn3 N8'
_cell_volume   363.28629031
_cell_formula_units_Z   1
loop_
 _symmetry_equiv_pos_site_id
 _symmetry_equiv_pos_as_xyz
  1  'x, y, z'
loop_
 _atom_site_type_symbol
 _atom_site_label
 _atom_site_symmetry_multiplicity
 _atom_site_fract_x
 _atom_site_fract_y
 _atom_site_fract_z
 _atom_site_occupancy
  Sr  Sr0  1  0.02871100  0.26613100  0.05742100  1.0
  Sr  Sr1  1  0.97128900  0.73386900  0.94257900  1.0
  Sr  Sr2  1  0.33200000  0.52831000  0.66399900  1.0
  Sr  Sr3  1  0.66800000  0.47169000  0.33600100  1.0
  Sr  Sr4  1  0.40020800  0.04692700  0.80041700  1.0
  Sr  Sr5  1  0.59979200  0.95307300  0.19958300  1.0
  Sr  Sr6  1  0.19995200  0.80419100  0.39990600  1.0
  Sr  Sr7  1  0.80004800  0.19580900  0.60009400  1.0
  Mn  Mn8  1  0.50000000  0.50000000  1.00000000  1.0
  Mn  Mn9  1  0.18569000  0.20325400  0.37138100  1.0
  Mn  Mn10  1  0.81431000  0.79674600  0.62861900  1.0
  N  N11  1  0.10517700  0.01207600  0.21035500  1.0
  N  N12  1  0.89482300  0.98792400  0.78964500  1.0
  N  N13  1  0.17752900  0.42650600  0.35505800  1.0
  N  N14  1  0.82247100  0.57349400  0.64494200  1.0
  N  N15  1  0.27391900  0.16812200  0.54783900  1.0
  N  N16  1  0.72608100  0.83187800  0.45216100  1.0
  N  N17  1  0.47541500  0.70488300  0.95083100  1.0
  N  N18  1  0.52458500  0.29511700  0.04916900  1.0
