# generated using pymatgen
data_SrAg2
_symmetry_space_group_name_H-M   'P 1'
_cell_length_a   4.89749000
_cell_length_b   6.20861032
_cell_length_c   6.20861032
_cell_angle_alpha   77.73994170
_cell_angle_beta   66.77074731
_cell_angle_gamma   66.77074732
_symmetry_Int_Tables_number   1
_chemical_formula_structural   SrAg2
_chemical_formula_sum   'Sr2 Ag4'
_cell_volume   159.05480075
_cell_formula_units_Z   2
loop_
 _symmetry_equiv_pos_site_id
 _symmetry_equiv_pos_as_xyz
  1  'x, y, z'
loop_
 _atom_site_type_symbol
 _atom_site_label
 _atom_site_symmetry_multiplicity
 _atom_site_fract_x
 _atom_site_fract_y
 _atom_site_fract_z
 _atom_site_occupancy
  Sr  Sr0  1  0.95750400  0.29249600  0.79249600  1.0
  Sr  Sr1  1  0.04249600  0.70750400  0.20750400  1.0
  Ag  Ag2  1  0.66359300  0.28286400  0.38995000  1.0
  Ag  Ag3  1  0.33640700  0.71713600  0.61005000  1.0
  Ag  Ag4  1  0.66359300  0.88995000  0.78286400  1.0
  Ag  Ag5  1  0.33640700  0.11005000  0.21713600  1.0
