# generated using pymatgen
data_SrCaDyBiO6
_symmetry_space_group_name_H-M   'P 1'
_cell_length_a   5.93157725
_cell_length_b   5.94526401
_cell_length_c   5.94526401
_cell_angle_alpha   60.90737650
_cell_angle_beta   60.55414827
_cell_angle_gamma   60.55414827
_symmetry_Int_Tables_number   1
_chemical_formula_structural   SrCaDyBiO6
_chemical_formula_sum   'Sr1 Ca1 Dy1 Bi1 O6'
_cell_volume   150.49580260
_cell_formula_units_Z   1
loop_
 _symmetry_equiv_pos_site_id
 _symmetry_equiv_pos_as_xyz
  1  'x, y, z'
loop_
 _atom_site_type_symbol
 _atom_site_label
 _atom_site_symmetry_multiplicity
 _atom_site_fract_x
 _atom_site_fract_y
 _atom_site_fract_z
 _atom_site_occupancy
  Sr  Sr0  1  0.22904445  0.25093255  0.25093255  1.0
  Ca  Ca1  1  0.78369143  0.74986238  0.74986238  1.0
  Dy  Dy2  1  0.50105536  0.49975012  0.49975012  1.0
  Bi  Bi3  1  0.00070114  0.99975339  0.99975339  1.0
  O  O4  1  0.65219482  0.24211903  0.24211903  1.0
  O  O5  1  0.36982197  0.75988445  0.75988445  1.0
  O  O6  1  0.16601925  0.32168545  0.81081906  1.0
  O  O7  1  0.81572616  0.69552867  0.16966490  1.0
  O  O8  1  0.81572616  0.16966490  0.69552867  1.0
  O  O9  1  0.16601925  0.81081906  0.32168545  1.0
