# generated using pymatgen
data_SrCaSi4
_symmetry_space_group_name_H-M   'P 1'
_cell_length_a   4.36804200
_cell_length_b   4.36804200
_cell_length_c   7.52218493
_cell_angle_alpha   106.87854984
_cell_angle_beta   106.87854984
_cell_angle_gamma   90.00000001
_symmetry_Int_Tables_number   1
_chemical_formula_structural   SrCaSi4
_chemical_formula_sum   'Sr1 Ca1 Si4'
_cell_volume   130.86479439
_cell_formula_units_Z   1
loop_
 _symmetry_equiv_pos_site_id
 _symmetry_equiv_pos_as_xyz
  1  'x, y, z'
loop_
 _atom_site_type_symbol
 _atom_site_label
 _atom_site_symmetry_multiplicity
 _atom_site_fract_x
 _atom_site_fract_y
 _atom_site_fract_z
 _atom_site_occupancy
  Sr  Sr0  1  0.00000000  0.00000000  0.00000000  1.0
  Ca  Ca1  1  0.25000000  0.75000000  0.50000000  1.0
  Si  Si2  1  0.66666667  0.16666667  0.33333067  1.0
  Si  Si3  1  0.58545600  0.58545600  0.17091200  1.0
  Si  Si4  1  0.83333600  0.33333600  0.66666933  1.0
  Si  Si5  1  0.41454400  0.41454400  0.82908800  1.0
