# generated using pymatgen
data_SrCrHO2
_symmetry_space_group_name_H-M   'P 1'
_cell_length_a   3.60553500
_cell_length_b   4.01095900
_cell_length_c   4.01096600
_cell_angle_alpha   90.00000000
_cell_angle_beta   90.00006035
_cell_angle_gamma   90.00000000
_symmetry_Int_Tables_number   1
_chemical_formula_structural   SrCrHO2
_chemical_formula_sum   'Sr1 Cr1 H1 O2'
_cell_volume   58.00519876
_cell_formula_units_Z   1
loop_
 _symmetry_equiv_pos_site_id
 _symmetry_equiv_pos_as_xyz
  1  'x, y, z'
loop_
 _atom_site_type_symbol
 _atom_site_label
 _atom_site_symmetry_multiplicity
 _atom_site_fract_x
 _atom_site_fract_y
 _atom_site_fract_z
 _atom_site_occupancy
  Cr  Cr2  1  0.00000750  0.00000300  0.00000050  1.0
  H  H4  1  0.49999800  0.99999850  0.99999950  1.0
  O  O6  1  0.99999950  0.99999900  0.49999950  1.0
  O  O8  1  0.99999650  0.50000050  0.00000100  1.0
  Sr  Sr0  1  0.49999800  0.49999850  0.49999950  1.0
