# generated using pymatgen
data_SrLaMnRuO6
_symmetry_space_group_name_H-M   'P 1'
_cell_length_a   5.64660100
_cell_length_b   5.76584900
_cell_length_c   8.02863758
_cell_angle_alpha   89.99964814
_cell_angle_beta   89.94001319
_cell_angle_gamma   89.99955365
_symmetry_Int_Tables_number   1
_chemical_formula_structural   SrLaMnRuO6
_chemical_formula_sum   'Sr2 La2 Mn2 Ru2 O12'
_cell_volume   261.39181310
_cell_formula_units_Z   2
loop_
 _symmetry_equiv_pos_site_id
 _symmetry_equiv_pos_as_xyz
  1  'x, y, z'
loop_
 _atom_site_type_symbol
 _atom_site_label
 _atom_site_symmetry_multiplicity
 _atom_site_fract_x
 _atom_site_fract_y
 _atom_site_fract_z
 _atom_site_occupancy
  Sr  Sr0  1  0.99383600  0.96187100  0.74894800  1.0
  Sr  Sr1  1  0.49382900  0.53812600  0.24894500  1.0
  La  La2  1  0.51060900  0.44891400  0.74786300  1.0
  La  La3  1  0.01061600  0.05109300  0.24786400  1.0
  Mn  Mn4  1  0.50046000  0.99302100  0.49862500  1.0
  Mn  Mn5  1  0.00047000  0.50698900  0.99862200  1.0
  Ru  Ru6  1  0.50040500  0.99778600  0.99996000  1.0
  Ru  Ru7  1  0.00039800  0.50221200  0.49995900  1.0
  O  O8  1  0.43017300  0.02771100  0.75905000  1.0
  O  O9  1  0.93017100  0.47229100  0.25905100  1.0
  O  O10  1  0.79619500  0.22527500  0.54204200  1.0
  O  O11  1  0.29619300  0.27471800  0.04204200  1.0
  O  O12  1  0.77785500  0.20353000  0.96246200  1.0
  O  O13  1  0.27785800  0.29646400  0.46246200  1.0
  O  O14  1  0.09045100  0.51849000  0.74103200  1.0
  O  O15  1  0.59044900  0.98151200  0.24103500  1.0
  O  O16  1  0.71231300  0.69365400  0.54472500  1.0
  O  O17  1  0.21231300  0.80634600  0.04472800  1.0
  O  O18  1  0.68770700  0.70995900  0.95529200  1.0
  O  O19  1  0.18770200  0.79003900  0.45529200  1.0
