# generated using pymatgen
data_SrLiPO4
_symmetry_space_group_name_H-M   'P 1'
_cell_length_a   5.08372600
_cell_length_b   5.08372525
_cell_length_c   8.44133000
_cell_angle_alpha   90.00000000
_cell_angle_beta   90.00000000
_cell_angle_gamma   120.00000486
_symmetry_Int_Tables_number   1
_chemical_formula_structural   SrLiPO4
_chemical_formula_sum   'Sr2 Li2 P2 O8'
_cell_volume   188.93207526
_cell_formula_units_Z   2
loop_
 _symmetry_equiv_pos_site_id
 _symmetry_equiv_pos_as_xyz
  1  'x, y, z'
loop_
 _atom_site_type_symbol
 _atom_site_label
 _atom_site_symmetry_multiplicity
 _atom_site_fract_x
 _atom_site_fract_y
 _atom_site_fract_z
 _atom_site_occupancy
  Sr  Sr0  1  0.00000000  0.00000000  0.01689100  1.0
  Sr  Sr1  1  0.00000000  0.00000000  0.51689100  1.0
  Li  Li2  1  0.33333333  0.66666667  0.82519900  1.0
  Li  Li3  1  0.66666667  0.33333333  0.32519900  1.0
  P  P4  1  0.33333333  0.66666667  0.22877800  1.0
  P  P5  1  0.66666667  0.33333333  0.72877800  1.0
  O  O6  1  0.33333333  0.66666667  0.04530100  1.0
  O  O7  1  0.66666667  0.33333333  0.54530100  1.0
  O  O8  1  0.05900600  0.36222300  0.28506100  1.0
  O  O9  1  0.63777700  0.69678300  0.28506100  1.0
  O  O10  1  0.94099400  0.63777700  0.78506100  1.0
  O  O11  1  0.30321700  0.94099400  0.28506100  1.0
  O  O12  1  0.36222300  0.30321700  0.78506100  1.0
  O  O13  1  0.69678300  0.05900600  0.78506100  1.0
