# generated using pymatgen
data_SrMg5
_symmetry_space_group_name_H-M   'P 1'
_cell_length_a   5.05966300
_cell_length_b   6.19016800
_cell_length_c   6.19016822
_cell_angle_alpha   60.00000119
_cell_angle_beta   90.00000000
_cell_angle_gamma   90.00000000
_symmetry_Int_Tables_number   1
_chemical_formula_structural   SrMg5
_chemical_formula_sum   'Sr1 Mg5'
_cell_volume   167.90248170
_cell_formula_units_Z   1
loop_
 _symmetry_equiv_pos_site_id
 _symmetry_equiv_pos_as_xyz
  1  'x, y, z'
loop_
 _atom_site_type_symbol
 _atom_site_label
 _atom_site_symmetry_multiplicity
 _atom_site_fract_x
 _atom_site_fract_y
 _atom_site_fract_z
 _atom_site_occupancy
  Sr  Sr0  1  0.50000000  0.00000000  0.00000000  1.0
  Mg  Mg1  1  1.00000000  0.00000000  0.50000000  1.0
  Mg  Mg2  1  0.50000000  0.66666667  0.66666667  1.0
  Mg  Mg3  1  1.00000000  0.50000000  0.00000000  1.0
  Mg  Mg4  1  0.50000000  0.33333333  0.33333333  1.0
  Mg  Mg5  1  0.00000000  0.50000000  0.50000000  1.0
