# generated using pymatgen
data_SrMoO3
_symmetry_space_group_name_H-M   'P 1'
_cell_length_a   5.73284156
_cell_length_b   5.74274199
_cell_length_c   5.74413647
_cell_angle_alpha   90.48007073
_cell_angle_beta   119.22270130
_cell_angle_gamma   119.83969788
_symmetry_Int_Tables_number   1
_chemical_formula_structural   SrMoO3
_chemical_formula_sum   'Sr2 Mo2 O6'
_cell_volume   135.04259795
_cell_formula_units_Z   2
loop_
 _symmetry_equiv_pos_site_id
 _symmetry_equiv_pos_as_xyz
  1  'x, y, z'
loop_
 _atom_site_type_symbol
 _atom_site_label
 _atom_site_symmetry_multiplicity
 _atom_site_fract_x
 _atom_site_fract_y
 _atom_site_fract_z
 _atom_site_occupancy
  Sr  Sr0  1  0.49000000  0.74335000  0.24257200  1.0
  Sr  Sr1  1  0.51000000  0.25665000  0.75742800  1.0
  Mo  Mo2  1  0.00000000  0.50000000  0.50000000  1.0
  Mo  Mo3  1  0.00000000  0.00000000  0.00000000  1.0
  O  O4  1  0.90757300  0.18252600  0.67181000  1.0
  O  O5  1  0.09242700  0.81747400  0.32819000  1.0
  O  O6  1  0.99735200  0.27941800  0.21772000  1.0
  O  O7  1  0.51016000  0.70827100  0.80421200  1.0
  O  O8  1  0.48984000  0.29172900  0.19578800  1.0
  O  O9  1  0.00264800  0.72058200  0.78228000  1.0
