# generated using pymatgen
data_SrN6
_symmetry_space_group_name_H-M   'P 1'
_cell_length_a   6.18429400
_cell_length_b   6.59359036
_cell_length_c   6.79606085
_cell_angle_alpha   77.67986221
_cell_angle_beta   62.93564031
_cell_angle_gamma   62.03302504
_symmetry_Int_Tables_number   1
_chemical_formula_structural   SrN6
_chemical_formula_sum   'Sr2 N12'
_cell_volume   217.95621449
_cell_formula_units_Z   2
loop_
 _symmetry_equiv_pos_site_id
 _symmetry_equiv_pos_as_xyz
  1  'x, y, z'
loop_
 _atom_site_type_symbol
 _atom_site_label
 _atom_site_symmetry_multiplicity
 _atom_site_fract_x
 _atom_site_fract_y
 _atom_site_fract_z
 _atom_site_occupancy
  Sr  Sr0  1  0.50000000  0.00000000  0.00000000  1.0
  Sr  Sr1  1  0.25000000  0.50000000  0.50000000  1.0
  N  N2  1  0.08784200  0.37263100  0.24997200  1.0
  N  N3  1  0.71044400  0.62737000  0.75002900  1.0
  N  N4  1  0.62399700  0.50000000  0.75200600  1.0
  N  N5  1  0.87600300  0.50000000  0.24799400  1.0
  N  N6  1  0.12600300  0.00000000  0.74799400  1.0
  N  N7  1  0.87399700  0.00000000  0.25200600  1.0
  N  N8  1  0.08781500  0.87263000  0.25002800  1.0
  N  N9  1  0.21047400  0.12736900  0.74997100  1.0
  N  N10  1  0.03955600  0.87263000  0.74997100  1.0
  N  N11  1  0.66215800  0.12736900  0.25002800  1.0
  N  N12  1  0.66218500  0.62737000  0.24997200  1.0
  N  N13  1  0.53952600  0.37263100  0.75002900  1.0
