# generated using pymatgen
data_SrO2
_symmetry_space_group_name_H-M   'P 1'
_cell_length_a   3.57330400
_cell_length_b   3.57330400
_cell_length_c   4.24432900
_cell_angle_alpha   114.89460494
_cell_angle_beta   114.89460493
_cell_angle_gamma   90.00000001
_symmetry_Int_Tables_number   1
_chemical_formula_structural   SrO2
_chemical_formula_sum   'Sr1 O2'
_cell_volume   43.54429304
_cell_formula_units_Z   1
loop_
 _symmetry_equiv_pos_site_id
 _symmetry_equiv_pos_as_xyz
  1  'x, y, z'
loop_
 _atom_site_type_symbol
 _atom_site_label
 _atom_site_symmetry_multiplicity
 _atom_site_fract_x
 _atom_site_fract_y
 _atom_site_fract_z
 _atom_site_occupancy
  Sr  Sr0  1  0.00000000  0.00000000  0.00000000  1.0
  O  O1  1  0.38934600  0.38934600  0.77869200  1.0
  O  O2  1  0.61065400  0.61065400  0.22130800  1.0
