# generated using pymatgen
data_SrPrScO4
_symmetry_space_group_name_H-M   'P 1'
_cell_length_a   5.71666600
_cell_length_b   5.88751200
_cell_length_c   6.85106858
_cell_angle_alpha   90.00000000
_cell_angle_beta   114.65855583
_cell_angle_gamma   90.00000000
_symmetry_Int_Tables_number   1
_chemical_formula_structural   SrPrScO4
_chemical_formula_sum   'Sr2 Pr2 Sc2 O8'
_cell_volume   209.55891007
_cell_formula_units_Z   2
loop_
 _symmetry_equiv_pos_site_id
 _symmetry_equiv_pos_as_xyz
  1  'x, y, z'
loop_
 _atom_site_type_symbol
 _atom_site_label
 _atom_site_symmetry_multiplicity
 _atom_site_fract_x
 _atom_site_fract_y
 _atom_site_fract_z
 _atom_site_occupancy
  Sr  Sr0  1  0.60425600  0.51341600  0.20851200  1.0
  Sr  Sr1  1  0.39574400  0.01341600  0.79148800  1.0
  Pr  Pr2  1  0.89109900  0.48377900  0.78219800  1.0
  Pr  Pr3  1  0.10890100  0.98377900  0.21780200  1.0
  Sc  Sc4  1  0.25410800  0.49557200  0.50821600  1.0
  Sc  Sc5  1  0.74589200  0.99557200  0.49178400  1.0
  O  O6  1  0.01692800  0.74132500  0.54430700  1.0
  O  O7  1  0.98307200  0.24132500  0.45569300  1.0
  O  O8  1  0.47262100  0.24132500  0.45569300  1.0
  O  O9  1  0.52737900  0.74132500  0.54430700  1.0
  O  O10  1  0.58337500  0.93656700  0.16675000  1.0
  O  O11  1  0.93003200  0.08801500  0.86006400  1.0
  O  O12  1  0.41662500  0.43656700  0.83325000  1.0
  O  O13  1  0.06996800  0.58801500  0.13993600  1.0
