# generated using pymatgen
data_SrTiFe3(BiO4)3
_symmetry_space_group_name_H-M   'P 1'
_cell_length_a   5.63356683
_cell_length_b   5.63356683
_cell_length_c   9.87098321
_cell_angle_alpha   73.41963396
_cell_angle_beta   73.41963396
_cell_angle_gamma   59.99999020
_symmetry_Int_Tables_number   1
_chemical_formula_structural   SrTiFe3(BiO4)3
_chemical_formula_sum   'Sr1 Ti1 Fe3 Bi3 O12'
_cell_volume   256.15369100
_cell_formula_units_Z   1
loop_
 _symmetry_equiv_pos_site_id
 _symmetry_equiv_pos_as_xyz
  1  'x, y, z'
loop_
 _atom_site_type_symbol
 _atom_site_label
 _atom_site_symmetry_multiplicity
 _atom_site_fract_x
 _atom_site_fract_y
 _atom_site_fract_z
 _atom_site_occupancy
  Sr  Sr0  1  0.36575000  0.36575000  0.90275000  1.0
  Ti  Ti1  1  0.98953400  0.98953400  0.03139800  1.0
  Fe  Fe2  1  0.74162000  0.74162000  0.77514000  1.0
  Fe  Fe3  1  0.24565800  0.24565800  0.26302600  1.0
  Fe  Fe4  1  0.49383300  0.49383300  0.51850100  1.0
  Bi  Bi5  1  0.85383800  0.85383800  0.43848600  1.0
  Bi  Bi6  1  0.10341500  0.10341500  0.68975500  1.0
  Bi  Bi7  1  0.60386400  0.60386400  0.18840800  1.0
  O  O8  1  0.19189600  0.62565700  0.12621400  1.0
  O  O9  1  0.70032300  0.11275400  0.62387600  1.0
  O  O10  1  0.62565700  0.05623300  0.12621400  1.0
  O  O11  1  0.11275400  0.56304700  0.62387600  1.0
  O  O12  1  0.05623300  0.19189600  0.12621400  1.0
  O  O13  1  0.56304700  0.70032300  0.62387600  1.0
  O  O14  1  0.85986500  0.46136000  0.36841000  1.0
  O  O15  1  0.35516900  0.93930900  0.87303300  1.0
  O  O16  1  0.46136000  0.31036500  0.36841000  1.0
  O  O17  1  0.93930900  0.83248900  0.87303300  1.0
  O  O18  1  0.31036500  0.85986500  0.36841000  1.0
  O  O19  1  0.83248900  0.35516900  0.87303300  1.0
