# generated using pymatgen
data_SrZnGe
_symmetry_space_group_name_H-M   'P 1'
_cell_length_a   4.34887600
_cell_length_b   4.34889777
_cell_length_c   4.67664500
_cell_angle_alpha   90.00000000
_cell_angle_beta   90.00000000
_cell_angle_gamma   119.99952419
_symmetry_Int_Tables_number   1
_chemical_formula_structural   SrZnGe
_chemical_formula_sum   'Sr1 Zn1 Ge1'
_cell_volume   76.59904258
_cell_formula_units_Z   1
loop_
 _symmetry_equiv_pos_site_id
 _symmetry_equiv_pos_as_xyz
  1  'x, y, z'
loop_
 _atom_site_type_symbol
 _atom_site_label
 _atom_site_symmetry_multiplicity
 _atom_site_fract_x
 _atom_site_fract_y
 _atom_site_fract_z
 _atom_site_occupancy
  Sr  Sr0  1  0.00000600  0.00000600  1.00000000  1.0
  Zn  Zn1  1  0.66666667  0.33333333  0.50000000  1.0
  Ge  Ge2  1  0.33337267  0.66670600  0.50000000  1.0
