# generated using pymatgen
data_Ta10Al6B
_symmetry_space_group_name_H-M   'P 1'
_cell_length_a   5.29210600
_cell_length_b   7.84188800
_cell_length_c   7.84188781
_cell_angle_alpha   120.00000081
_cell_angle_beta   90.00000000
_cell_angle_gamma   90.00000000
_symmetry_Int_Tables_number   1
_chemical_formula_structural   Ta10Al6B
_chemical_formula_sum   'Ta10 Al6 B1'
_cell_volume   281.83856749
_cell_formula_units_Z   1
loop_
 _symmetry_equiv_pos_site_id
 _symmetry_equiv_pos_as_xyz
  1  'x, y, z'
loop_
 _atom_site_type_symbol
 _atom_site_label
 _atom_site_symmetry_multiplicity
 _atom_site_fract_x
 _atom_site_fract_y
 _atom_site_fract_z
 _atom_site_occupancy
  Ta  Ta0  1  0.50000000  0.66666667  0.33333333  1.0
  Ta  Ta1  1  0.50000000  0.33333333  0.66666667  1.0
  Ta  Ta2  1  0.00000000  0.33333333  0.66666667  1.0
  Ta  Ta3  1  1.00000000  0.66666667  0.33333333  1.0
  Ta  Ta4  1  0.75783500  0.00000000  0.76128400  1.0
  Ta  Ta5  1  0.75783500  0.76128400  1.00000000  1.0
  Ta  Ta6  1  0.75783500  0.23871600  0.23871600  1.0
  Ta  Ta7  1  0.24216500  0.00000000  0.23871600  1.0
  Ta  Ta8  1  0.24216500  0.23871600  1.00000000  1.0
  Ta  Ta9  1  0.24216500  0.76128400  0.76128400  1.0
  Al  Al10  1  0.74781900  0.00000000  0.40121100  1.0
  Al  Al11  1  0.74781900  0.40121100  1.00000000  1.0
  Al  Al12  1  0.74781900  0.59878900  0.59878900  1.0
  Al  Al13  1  0.25218100  0.00000000  0.59878900  1.0
  Al  Al14  1  0.25218100  0.59878900  0.00000000  1.0
  Al  Al15  1  0.25218100  0.40121100  0.40121100  1.0
  B  B16  1  0.50000000  0.00000000  0.00000000  1.0
