# generated using pymatgen
data_TaCu3(TeSe)2
_symmetry_space_group_name_H-M   'P 1'
_cell_length_a   5.86949400
_cell_length_b   5.88029193
_cell_length_c   5.88029193
_cell_angle_alpha   90.64423711
_cell_angle_beta   90.00000000
_cell_angle_gamma   90.00000000
_symmetry_Int_Tables_number   1
_chemical_formula_structural   TaCu3(TeSe)2
_chemical_formula_sum   'Ta1 Cu3 Te2 Se2'
_cell_volume   202.94155488
_cell_formula_units_Z   1
loop_
 _symmetry_equiv_pos_site_id
 _symmetry_equiv_pos_as_xyz
  1  'x, y, z'
loop_
 _atom_site_type_symbol
 _atom_site_label
 _atom_site_symmetry_multiplicity
 _atom_site_fract_x
 _atom_site_fract_y
 _atom_site_fract_z
 _atom_site_occupancy
  Ta  Ta0  1  0.00621900  0.00000000  0.00000000  1.0
  Cu  Cu1  1  0.01038200  0.50000000  1.00000000  1.0
  Cu  Cu2  1  0.01038200  0.00000000  0.50000000  1.0
  Cu  Cu3  1  0.49662100  0.00000000  0.00000000  1.0
  Te  Te4  1  0.74166000  0.73727100  0.73727100  1.0
  Te  Te5  1  0.74166000  0.26272900  0.26272900  1.0
  Se  Se6  1  0.24653800  0.24193200  0.75806800  1.0
  Se  Se7  1  0.24653800  0.75806800  0.24193200  1.0
