# generated using pymatgen
data_TaNb(Cu3Se4)2
_symmetry_space_group_name_H-M   'P 1'
_cell_length_a   8.04962299
_cell_length_b   8.04962299
_cell_length_c   8.04962299
_cell_angle_alpha   60.00000000
_cell_angle_beta   60.00000000
_cell_angle_gamma   60.00000000
_symmetry_Int_Tables_number   1
_chemical_formula_structural   TaNb(Cu3Se4)2
_chemical_formula_sum   'Ta1 Nb1 Cu6 Se8'
_cell_volume   368.81758791
_cell_formula_units_Z   1
loop_
 _symmetry_equiv_pos_site_id
 _symmetry_equiv_pos_as_xyz
  1  'x, y, z'
loop_
 _atom_site_type_symbol
 _atom_site_label
 _atom_site_symmetry_multiplicity
 _atom_site_fract_x
 _atom_site_fract_y
 _atom_site_fract_z
 _atom_site_occupancy
  Ta  Ta0  1  0.50000000  0.50000000  0.50000000  1.0
  Nb  Nb1  1  0.00000000  0.00000000  0.00000000  1.0
  Cu  Cu2  1  0.24993300  0.75006700  0.24993300  1.0
  Cu  Cu3  1  0.75006700  0.24993300  0.75006700  1.0
  Cu  Cu4  1  0.75006700  0.24993300  0.24993300  1.0
  Cu  Cu5  1  0.24993300  0.75006700  0.75006700  1.0
  Cu  Cu6  1  0.24993300  0.24993300  0.75006700  1.0
  Cu  Cu7  1  0.75006700  0.75006700  0.24993300  1.0
  Se  Se8  1  0.12524800  0.62425800  0.12524700  1.0
  Se  Se9  1  0.62505800  0.12482800  0.62505700  1.0
  Se  Se10  1  0.62425900  0.12524700  0.12524700  1.0
  Se  Se11  1  0.12482900  0.62505700  0.62505700  1.0
  Se  Se12  1  0.12524800  0.12524700  0.62425800  1.0
  Se  Se13  1  0.62505800  0.62505700  0.12482800  1.0
  Se  Se14  1  0.12524800  0.12524700  0.12524700  1.0
  Se  Se15  1  0.62505800  0.62505700  0.62505700  1.0
