# generated using pymatgen
data_TaZn2N3
_symmetry_space_group_name_H-M   'P 1'
_cell_length_a   5.44606500
_cell_length_b   5.74133543
_cell_length_c   5.74133543
_cell_angle_alpha   119.36960639
_cell_angle_beta   90.00000000
_cell_angle_gamma   90.00000000
_symmetry_Int_Tables_number   1
_chemical_formula_structural   TaZn2N3
_chemical_formula_sum   'Ta2 Zn4 N6'
_cell_volume   156.44552504
_cell_formula_units_Z   2
loop_
 _symmetry_equiv_pos_site_id
 _symmetry_equiv_pos_as_xyz
  1  'x, y, z'
loop_
 _atom_site_type_symbol
 _atom_site_label
 _atom_site_symmetry_multiplicity
 _atom_site_fract_x
 _atom_site_fract_y
 _atom_site_fract_z
 _atom_site_occupancy
  Ta  Ta0  1  0.48739200  0.33113600  0.33113600  1.0
  Ta  Ta1  1  0.98739200  0.66886400  0.66886400  1.0
  Zn  Zn2  1  0.49804300  0.01078800  0.66655800  1.0
  Zn  Zn3  1  0.49804300  0.66655800  0.01078800  1.0
  Zn  Zn4  1  0.99804300  0.98921200  0.33344200  1.0
  Zn  Zn5  1  0.99804300  0.33344200  0.98921200  1.0
  N  N6  1  0.87525600  0.98856900  0.67034000  1.0
  N  N7  1  0.87525600  0.67034000  0.98856900  1.0
  N  N8  1  0.37525600  0.01143100  0.32966000  1.0
  N  N9  1  0.37525600  0.32966000  0.01143100  1.0
  N  N10  1  0.85401000  0.34694000  0.34694000  1.0
  N  N11  1  0.35401000  0.65306000  0.65306000  1.0
