# generated using pymatgen
data_Tb(Al2Cu)4
_symmetry_space_group_name_H-M   'P 1'
_cell_length_a   5.13627600
_cell_length_b   6.76114679
_cell_length_c   6.76114679
_cell_angle_alpha   81.70460743
_cell_angle_beta   67.67637431
_cell_angle_gamma   67.67637432
_symmetry_Int_Tables_number   1
_chemical_formula_structural   Tb(Al2Cu)4
_chemical_formula_sum   'Tb1 Al8 Cu4'
_cell_volume   200.91967922
_cell_formula_units_Z   1
loop_
 _symmetry_equiv_pos_site_id
 _symmetry_equiv_pos_as_xyz
  1  'x, y, z'
loop_
 _atom_site_type_symbol
 _atom_site_label
 _atom_site_symmetry_multiplicity
 _atom_site_fract_x
 _atom_site_fract_y
 _atom_site_fract_z
 _atom_site_occupancy
  Tb  Tb0  1  0.00000000  0.00000000  0.00000000  1.0
  Al  Al1  1  0.00000000  0.34733200  0.65266800  1.0
  Al  Al2  1  0.00000000  0.65266800  0.34733200  1.0
  Al  Al3  1  0.34733200  0.65266800  0.65266800  1.0
  Al  Al4  1  0.65266800  0.34733200  0.34733200  1.0
  Al  Al5  1  0.50000000  0.78078600  0.21921400  1.0
  Al  Al6  1  0.50000000  0.21921400  0.78078600  1.0
  Al  Al7  1  0.28078600  0.21921400  0.21921400  1.0
  Al  Al8  1  0.71921400  0.78078600  0.78078600  1.0
  Cu  Cu9  1  0.50000000  0.50000000  0.00000000  1.0
  Cu  Cu10  1  0.00000000  0.50000000  0.00000000  1.0
  Cu  Cu11  1  1.00000000  0.00000000  0.50000000  1.0
  Cu  Cu12  1  0.50000000  0.00000000  0.50000000  1.0
