# generated using pymatgen
data_Tb(AlFe)6
_symmetry_space_group_name_H-M   'P 1'
_cell_length_a   4.99483600
_cell_length_b   6.55741509
_cell_length_c   6.55741509
_cell_angle_alpha   81.01382559
_cell_angle_beta   67.61340637
_cell_angle_gamma   67.61340637
_symmetry_Int_Tables_number   1
_chemical_formula_structural   Tb(AlFe)6
_chemical_formula_sum   'Tb1 Al6 Fe6'
_cell_volume   183.60753176
_cell_formula_units_Z   1
loop_
 _symmetry_equiv_pos_site_id
 _symmetry_equiv_pos_as_xyz
  1  'x, y, z'
loop_
 _atom_site_type_symbol
 _atom_site_label
 _atom_site_symmetry_multiplicity
 _atom_site_fract_x
 _atom_site_fract_y
 _atom_site_fract_z
 _atom_site_occupancy
  Tb  Tb0  1  0.00000000  0.00000000  0.00000000  1.0
  Al  Al1  1  0.34611600  0.65388400  0.65388400  1.0
  Al  Al2  1  0.65388400  0.34611600  0.34611600  1.0
  Al  Al3  1  1.00000000  0.66320100  0.33679900  1.0
  Al  Al4  1  0.00000000  0.33679900  0.66320100  1.0
  Al  Al5  1  0.30623400  0.19376600  0.19376600  1.0
  Al  Al6  1  0.69376600  0.80623400  0.80623400  1.0
  Fe  Fe7  1  0.50000000  0.00000000  0.50000000  1.0
  Fe  Fe8  1  1.00000000  1.00000000  0.50000000  1.0
  Fe  Fe9  1  0.50000000  0.50000000  0.00000000  1.0
  Fe  Fe10  1  1.00000000  0.50000000  0.00000000  1.0
  Fe  Fe11  1  0.50000000  0.24038200  0.75961800  1.0
  Fe  Fe12  1  0.50000000  0.75961800  0.24038200  1.0
