# generated using pymatgen
data_Tb(BIr)2
_symmetry_space_group_name_H-M   'P 1'
_cell_length_a   5.49682783
_cell_length_b   5.49682783
_cell_length_c   6.20071275
_cell_angle_alpha   104.27798574
_cell_angle_beta   104.27798574
_cell_angle_gamma   116.33278578
_symmetry_Int_Tables_number   1
_chemical_formula_structural   Tb(BIr)2
_chemical_formula_sum   'Tb2 B4 Ir4'
_cell_volume   148.42769493
_cell_formula_units_Z   2
loop_
 _symmetry_equiv_pos_site_id
 _symmetry_equiv_pos_as_xyz
  1  'x, y, z'
loop_
 _atom_site_type_symbol
 _atom_site_label
 _atom_site_symmetry_multiplicity
 _atom_site_fract_x
 _atom_site_fract_y
 _atom_site_fract_z
 _atom_site_occupancy
  Tb  Tb0  1  0.50000000  0.50000000  0.00000000  1.0
  Tb  Tb1  1  0.75000000  0.25000000  0.50000000  1.0
  B  B2  1  0.18004300  0.81995700  0.00000000  1.0
  B  B3  1  0.06995700  0.93004300  0.50000000  1.0
  B  B4  1  0.81995700  0.18004300  0.99999900  1.0
  B  B5  1  0.43004300  0.56995700  0.50000000  1.0
  Ir  Ir6  1  0.87314800  0.87314800  0.74629600  1.0
  Ir  Ir7  1  0.12685200  0.12685200  0.25370400  1.0
  Ir  Ir8  1  0.37685200  0.87685200  0.75370400  1.0
  Ir  Ir9  1  0.12314800  0.62314800  0.24629600  1.0
