# generated using pymatgen
data_Tb12Co5Bi
_symmetry_space_group_name_H-M   'P 1'
_cell_length_a   8.36861008
_cell_length_b   8.36861008
_cell_length_c   8.36861008
_cell_angle_alpha   72.96859278
_cell_angle_beta   69.21793559
_cell_angle_gamma   110.62743485
_symmetry_Int_Tables_number   1
_chemical_formula_structural   Tb12Co5Bi
_chemical_formula_sum   'Tb12 Co5 Bi1'
_cell_volume   450.55665496
_cell_formula_units_Z   1
loop_
 _symmetry_equiv_pos_site_id
 _symmetry_equiv_pos_as_xyz
  1  'x, y, z'
loop_
 _atom_site_type_symbol
 _atom_site_label
 _atom_site_symmetry_multiplicity
 _atom_site_fract_x
 _atom_site_fract_y
 _atom_site_fract_z
 _atom_site_occupancy
  Tb  Tb0  1  0.52673900  0.81678400  0.29004500  1.0
  Tb  Tb1  1  0.47326100  0.18321600  0.70995500  1.0
  Tb  Tb2  1  0.89317200  0.18321700  0.29004400  1.0
  Tb  Tb3  1  0.10682800  0.81678300  0.70995600  1.0
  Tb  Tb4  1  0.69080600  0.31292100  0.99627300  1.0
  Tb  Tb5  1  0.30919400  0.68707900  0.00372700  1.0
  Tb  Tb6  1  0.30919400  0.31292100  0.37788500  1.0
  Tb  Tb7  1  0.69080600  0.68707900  0.62211500  1.0
  Tb  Tb8  1  0.80663100  0.01244200  0.79418800  1.0
  Tb  Tb9  1  0.19336900  0.98755800  0.20581200  1.0
  Tb  Tb10  1  0.19336900  0.39918000  0.79418900  1.0
  Tb  Tb11  1  0.80663100  0.60082000  0.20581100  1.0
  Co  Co12  1  0.62443000  0.62443000  1.00000000  1.0
  Co  Co13  1  0.37557000  0.37557000  1.00000000  1.0
  Co  Co14  1  0.50000000  0.88814000  0.61186000  1.0
  Co  Co15  1  0.50000000  0.11186000  0.38814000  1.0
  Co  Co16  1  0.00000000  0.00000000  0.00000000  1.0
  Bi  Bi17  1  0.00000000  0.50000000  0.50000000  1.0
