# generated using pymatgen
data_Tb2Ga3Co14
_symmetry_space_group_name_H-M   'P 1'
_cell_length_a   6.35517633
_cell_length_b   6.35517633
_cell_length_c   6.35517644
_cell_angle_alpha   82.68322066
_cell_angle_beta   82.68322066
_cell_angle_gamma   82.68323919
_symmetry_Int_Tables_number   1
_chemical_formula_structural   Tb2Ga3Co14
_chemical_formula_sum   'Tb2 Ga3 Co14'
_cell_volume   250.89505986
_cell_formula_units_Z   1
loop_
 _symmetry_equiv_pos_site_id
 _symmetry_equiv_pos_as_xyz
  1  'x, y, z'
loop_
 _atom_site_type_symbol
 _atom_site_label
 _atom_site_symmetry_multiplicity
 _atom_site_fract_x
 _atom_site_fract_y
 _atom_site_fract_z
 _atom_site_occupancy
  Tb  Tb0  1  0.34092300  0.34092300  0.34092300  1.0
  Tb  Tb1  1  0.66638300  0.66638300  0.66638300  1.0
  Ga  Ga2  1  0.34718800  0.84506000  0.34718800  1.0
  Ga  Ga3  1  0.34718800  0.34718800  0.84506000  1.0
  Ga  Ga4  1  0.84506000  0.34718800  0.34718800  1.0
  Co  Co5  1  0.09269500  0.09269500  0.09269500  1.0
  Co  Co6  1  0.90440700  0.90440700  0.90440700  1.0
  Co  Co7  1  0.99545800  0.99545800  0.50410500  1.0
  Co  Co8  1  0.50410500  0.99545800  0.99545800  1.0
  Co  Co9  1  0.99545800  0.50410500  0.99545800  1.0
  Co  Co10  1  0.28580600  0.71301400  0.99905500  1.0
  Co  Co11  1  0.99905500  0.28580600  0.71301400  1.0
  Co  Co12  1  0.71301400  0.99905500  0.28580600  1.0
  Co  Co13  1  0.99905500  0.71301400  0.28580600  1.0
  Co  Co14  1  0.28580600  0.99905500  0.71301400  1.0
  Co  Co15  1  0.71301400  0.28580600  0.99905500  1.0
  Co  Co16  1  0.66020200  0.14498000  0.66020200  1.0
  Co  Co17  1  0.66020200  0.66020200  0.14498000  1.0
  Co  Co18  1  0.14498000  0.66020200  0.66020200  1.0
