# generated using pymatgen
data_Tb2Ge5Ir3
_symmetry_space_group_name_H-M   'P 1'
_cell_length_a   6.05885400
_cell_length_b   8.39515696
_cell_length_c   8.39515696
_cell_angle_alpha   75.62783365
_cell_angle_beta   68.84734012
_cell_angle_gamma   68.84734011
_symmetry_Int_Tables_number   1
_chemical_formula_structural   Tb2Ge5Ir3
_chemical_formula_sum   'Tb4 Ge10 Ir6'
_cell_volume   367.98114286
_cell_formula_units_Z   2
loop_
 _symmetry_equiv_pos_site_id
 _symmetry_equiv_pos_as_xyz
  1  'x, y, z'
loop_
 _atom_site_type_symbol
 _atom_site_label
 _atom_site_symmetry_multiplicity
 _atom_site_fract_x
 _atom_site_fract_y
 _atom_site_fract_z
 _atom_site_occupancy
  Tb  Tb0  1  0.63256500  0.59634600  0.13852400  1.0
  Tb  Tb1  1  0.36743500  0.40365400  0.86147600  1.0
  Tb  Tb2  1  0.13256500  0.13852400  0.59634600  1.0
  Tb  Tb3  1  0.86743500  0.86147600  0.40365400  1.0
  Ge  Ge4  1  0.25000000  0.50000000  0.50000000  1.0
  Ge  Ge5  1  0.75000000  0.50000000  0.50000000  1.0
  Ge  Ge6  1  0.47563900  0.77436100  0.77436100  1.0
  Ge  Ge7  1  0.02436100  0.22563900  0.22563900  1.0
  Ge  Ge8  1  0.52436100  0.22563900  0.22563900  1.0
  Ge  Ge9  1  0.97563900  0.77436100  0.77436100  1.0
  Ge  Ge10  1  0.89914200  0.26118300  0.94053200  1.0
  Ge  Ge11  1  0.10085800  0.73881700  0.05946800  1.0
  Ge  Ge12  1  0.39914300  0.94053100  0.26118300  1.0
  Ge  Ge13  1  0.60085700  0.05946900  0.73881700  1.0
  Ir  Ir14  1  0.25000000  0.00000000  0.00000000  1.0
  Ir  Ir15  1  0.75000000  0.00000000  0.00000000  1.0
  Ir  Ir16  1  0.85886500  0.52896700  0.75330300  1.0
  Ir  Ir17  1  0.14113500  0.47103300  0.24669700  1.0
  Ir  Ir18  1  0.35886400  0.75330300  0.52896800  1.0
  Ir  Ir19  1  0.64113600  0.24669700  0.47103200  1.0
