# generated using pymatgen
data_Tb2InNi2
_symmetry_space_group_name_H-M   'P 1'
_cell_length_a   3.62239800
_cell_length_b   3.98183600
_cell_length_c   7.37908944
_cell_angle_alpha   105.65268590
_cell_angle_beta   90.00000000
_cell_angle_gamma   90.00000000
_symmetry_Int_Tables_number   1
_chemical_formula_structural   Tb2InNi2
_chemical_formula_sum   'Tb2 In1 Ni2'
_cell_volume   102.48733603
_cell_formula_units_Z   1
loop_
 _symmetry_equiv_pos_site_id
 _symmetry_equiv_pos_as_xyz
  1  'x, y, z'
loop_
 _atom_site_type_symbol
 _atom_site_label
 _atom_site_symmetry_multiplicity
 _atom_site_fract_x
 _atom_site_fract_y
 _atom_site_fract_z
 _atom_site_occupancy
  Tb  Tb0  1  0.50000000  0.63817700  0.27635400  1.0
  Tb  Tb1  1  0.50000000  0.36182300  0.72364600  1.0
  In  In2  1  0.00000000  0.00000000  0.00000000  1.0
  Ni  Ni3  1  0.00000000  0.80036400  0.60072800  1.0
  Ni  Ni4  1  0.00000000  0.19963600  0.39927200  1.0
