# generated using pymatgen
data_Tb2SeO2
_symmetry_space_group_name_H-M   'P 1'
_cell_length_a   3.85364000
_cell_length_b   3.85364000
_cell_length_c   6.68800359
_cell_angle_alpha   106.74429509
_cell_angle_beta   106.74429508
_cell_angle_gamma   90.00000001
_symmetry_Int_Tables_number   1
_chemical_formula_structural   Tb2SeO2
_chemical_formula_sum   'Tb2 Se1 O2'
_cell_volume   90.70279915
_cell_formula_units_Z   1
loop_
 _symmetry_equiv_pos_site_id
 _symmetry_equiv_pos_as_xyz
  1  'x, y, z'
loop_
 _atom_site_type_symbol
 _atom_site_label
 _atom_site_symmetry_multiplicity
 _atom_site_fract_x
 _atom_site_fract_y
 _atom_site_fract_z
 _atom_site_occupancy
  Tb  Tb0  1  0.34381400  0.34381400  0.68762800  1.0
  Tb  Tb1  1  0.65618600  0.65618600  0.31237200  1.0
  Se  Se2  1  0.00000000  0.00000000  0.00000000  1.0
  O  O3  1  0.75000000  0.25000000  0.50000000  1.0
  O  O4  1  0.25000000  0.75000000  0.50000000  1.0
