# generated using pymatgen
data_Tb2TeS2
_symmetry_space_group_name_H-M   'P 1'
_cell_length_a   4.23249400
_cell_length_b   5.37738600
_cell_length_c   7.61610996
_cell_angle_alpha   110.67257654
_cell_angle_beta   106.13279590
_cell_angle_gamma   90.00000001
_symmetry_Int_Tables_number   1
_chemical_formula_structural   Tb2TeS2
_chemical_formula_sum   'Tb2 Te1 S2'
_cell_volume   154.86262363
_cell_formula_units_Z   1
loop_
 _symmetry_equiv_pos_site_id
 _symmetry_equiv_pos_as_xyz
  1  'x, y, z'
loop_
 _atom_site_type_symbol
 _atom_site_label
 _atom_site_symmetry_multiplicity
 _atom_site_fract_x
 _atom_site_fract_y
 _atom_site_fract_z
 _atom_site_occupancy
  Tb  Tb0  1  0.66611400  0.16611400  0.33222800  1.0
  Tb  Tb1  1  0.33388600  0.83388600  0.66777200  1.0
  Te  Te2  1  0.00000000  0.00000000  0.00000000  1.0
  S  S3  1  0.29452400  0.29452400  0.58904800  1.0
  S  S4  1  0.70547600  0.70547600  0.41095200  1.0
