# generated using pymatgen
data_Tb5(SiSb)2
_symmetry_space_group_name_H-M   'P 1'
_cell_length_a   7.86380400
_cell_length_b   8.56042624
_cell_length_c   7.88997000
_cell_angle_alpha   90.00000000
_cell_angle_beta   90.00000000
_cell_angle_gamma   117.34268713
_symmetry_Int_Tables_number   1
_chemical_formula_structural   Tb5(SiSb)2
_chemical_formula_sum   'Tb10 Si4 Sb4'
_cell_volume   471.79246117
_cell_formula_units_Z   2
loop_
 _symmetry_equiv_pos_site_id
 _symmetry_equiv_pos_as_xyz
  1  'x, y, z'
loop_
 _atom_site_type_symbol
 _atom_site_label
 _atom_site_symmetry_multiplicity
 _atom_site_fract_x
 _atom_site_fract_y
 _atom_site_fract_z
 _atom_site_occupancy
  Tb  Tb0  1  0.95745800  0.25337300  0.66835400  1.0
  Tb  Tb1  1  0.04254200  0.74662700  0.33164600  1.0
  Tb  Tb2  1  0.54254200  0.74662700  0.16835400  1.0
  Tb  Tb3  1  0.20408500  0.74662700  0.83164600  1.0
  Tb  Tb4  1  0.45745800  0.25337300  0.83164600  1.0
  Tb  Tb5  1  0.79591500  0.25337300  0.16835400  1.0
  Tb  Tb6  1  0.29591500  0.25337300  0.33164600  1.0
  Tb  Tb7  1  0.70408500  0.74662700  0.66835400  1.0
  Tb  Tb8  1  0.00000000  0.00000000  0.00000000  1.0
  Tb  Tb9  1  0.50000000  0.00000000  0.50000000  1.0
  Si  Si10  1  0.62625200  0.00000000  0.87450000  1.0
  Si  Si11  1  0.37374800  0.00000000  0.12550000  1.0
  Si  Si12  1  0.87374800  0.00000000  0.37450000  1.0
  Si  Si13  1  0.12625200  1.00000000  0.62550000  1.0
  Sb  Sb14  1  0.20619800  0.41239600  0.00000000  1.0
  Sb  Sb15  1  0.79380200  0.58760400  0.00000000  1.0
  Sb  Sb16  1  0.29380200  0.58760400  0.50000000  1.0
  Sb  Sb17  1  0.70619800  0.41239600  0.50000000  1.0
