# generated using pymatgen
data_TbCu2Ni3
_symmetry_space_group_name_H-M   'P 1'
_cell_length_a   3.96749300
_cell_length_b   4.93466400
_cell_length_c   4.93466367
_cell_angle_alpha   120.00000223
_cell_angle_beta   90.00000000
_cell_angle_gamma   90.00000000
_symmetry_Int_Tables_number   1
_chemical_formula_structural   TbCu2Ni3
_chemical_formula_sum   'Tb1 Cu2 Ni3'
_cell_volume   83.66849099
_cell_formula_units_Z   1
loop_
 _symmetry_equiv_pos_site_id
 _symmetry_equiv_pos_as_xyz
  1  'x, y, z'
loop_
 _atom_site_type_symbol
 _atom_site_label
 _atom_site_symmetry_multiplicity
 _atom_site_fract_x
 _atom_site_fract_y
 _atom_site_fract_z
 _atom_site_occupancy
  Tb  Tb0  1  0.00000000  0.00000000  0.00000000  1.0
  Cu  Cu1  1  1.00000000  0.33333333  0.66666667  1.0
  Cu  Cu2  1  1.00000000  0.66666667  0.33333333  1.0
  Ni  Ni3  1  0.50000000  0.50000000  0.00000000  1.0
  Ni  Ni4  1  0.50000000  0.50000000  0.50000000  1.0
  Ni  Ni5  1  0.50000000  1.00000000  0.50000000  1.0
