# generated using pymatgen
data_TbNdFe17
_symmetry_space_group_name_H-M   'P 1'
_cell_length_a   6.37659235
_cell_length_b   6.37659171
_cell_length_c   6.37659171
_cell_angle_alpha   82.55555916
_cell_angle_beta   82.55556109
_cell_angle_gamma   82.55556109
_symmetry_Int_Tables_number   1
_chemical_formula_structural   TbNdFe17
_chemical_formula_sum   'Tb1 Nd1 Fe17'
_cell_volume   253.24305827
_cell_formula_units_Z   1
loop_
 _symmetry_equiv_pos_site_id
 _symmetry_equiv_pos_as_xyz
  1  'x, y, z'
loop_
 _atom_site_type_symbol
 _atom_site_label
 _atom_site_symmetry_multiplicity
 _atom_site_fract_x
 _atom_site_fract_y
 _atom_site_fract_z
 _atom_site_occupancy
  Tb  Tb0  1  0.65665600  0.65665600  0.65665600  1.0
  Nd  Nd1  1  0.34418600  0.34418600  0.34418600  1.0
  Fe  Fe2  1  0.66065500  0.66065500  0.15257800  1.0
  Fe  Fe3  1  0.15257800  0.66065500  0.66065500  1.0
  Fe  Fe4  1  0.66065500  0.15257800  0.66065500  1.0
  Fe  Fe5  1  0.34029800  0.34029800  0.84720000  1.0
  Fe  Fe6  1  0.84720000  0.34029800  0.34029800  1.0
  Fe  Fe7  1  0.34029800  0.84720000  0.34029800  1.0
  Fe  Fe8  1  0.99875100  0.29027300  0.71063200  1.0
  Fe  Fe9  1  0.71063200  0.99875100  0.29027300  1.0
  Fe  Fe10  1  0.29027300  0.71063200  0.99875100  1.0
  Fe  Fe11  1  0.29027300  0.99875100  0.71063200  1.0
  Fe  Fe12  1  0.71063200  0.29027300  0.99875100  1.0
  Fe  Fe13  1  0.99875100  0.71063200  0.29027300  1.0
  Fe  Fe14  1  0.50076800  0.99902000  0.99902000  1.0
  Fe  Fe15  1  0.99902000  0.50076800  0.99902000  1.0
  Fe  Fe16  1  0.99902000  0.99902000  0.50076800  1.0
  Fe  Fe17  1  0.08924100  0.08924100  0.08924100  1.0
  Fe  Fe18  1  0.91011500  0.91011500  0.91011500  1.0
