# generated using pymatgen
data_TbOF
_symmetry_space_group_name_H-M   'P 1'
_cell_length_a   3.84352021
_cell_length_b   3.84352021
_cell_length_c   6.77721415
_cell_angle_alpha   73.52708962
_cell_angle_beta   73.52708962
_cell_angle_gamma   59.99999638
_symmetry_Int_Tables_number   1
_chemical_formula_structural   TbOF
_chemical_formula_sum   'Tb2 O2 F2'
_cell_volume   81.92469930
_cell_formula_units_Z   2
loop_
 _symmetry_equiv_pos_site_id
 _symmetry_equiv_pos_as_xyz
  1  'x, y, z'
loop_
 _atom_site_type_symbol
 _atom_site_label
 _atom_site_symmetry_multiplicity
 _atom_site_fract_x
 _atom_site_fract_y
 _atom_site_fract_z
 _atom_site_occupancy
  Tb  Tb0  1  0.74100700  0.74100700  0.77697900  1.0
  Tb  Tb1  1  0.25899300  0.25899300  0.22302100  1.0
  O  O2  1  0.62194400  0.62194400  0.13416800  1.0
  O  O3  1  0.37805600  0.37805600  0.86583200  1.0
  F  F4  1  0.12985500  0.12985500  0.61043500  1.0
  F  F5  1  0.87014500  0.87014500  0.38956500  1.0
