# generated using pymatgen
data_TbSm3
_symmetry_space_group_name_H-M   'P 1'
_cell_length_a   5.89900700
_cell_length_b   7.28199400
_cell_length_c   7.28199331
_cell_angle_alpha   120.00000312
_cell_angle_beta   90.00000000
_cell_angle_gamma   90.00000000
_symmetry_Int_Tables_number   1
_chemical_formula_structural   TbSm3
_chemical_formula_sum   'Tb2 Sm6'
_cell_volume   270.90069660
_cell_formula_units_Z   2
loop_
 _symmetry_equiv_pos_site_id
 _symmetry_equiv_pos_as_xyz
  1  'x, y, z'
loop_
 _atom_site_type_symbol
 _atom_site_label
 _atom_site_symmetry_multiplicity
 _atom_site_fract_x
 _atom_site_fract_y
 _atom_site_fract_z
 _atom_site_occupancy
  Tb  Tb0  1  0.25000000  0.66666667  0.33333333  1.0
  Tb  Tb1  1  0.75000000  0.33333333  0.66666667  1.0
  Sm  Sm2  1  0.75000000  0.83301800  0.16698100  1.0
  Sm  Sm3  1  0.75000000  0.33396300  0.16698100  1.0
  Sm  Sm4  1  0.75000000  0.83301800  0.66603600  1.0
  Sm  Sm5  1  0.25000000  0.16698200  0.83301900  1.0
  Sm  Sm6  1  0.25000000  0.66603700  0.83301900  1.0
  Sm  Sm7  1  0.25000000  0.16698200  0.33396400  1.0
