# generated using pymatgen
data_TcAgO4
_symmetry_space_group_name_H-M   'P 1'
_cell_length_a   5.43408000
_cell_length_b   5.43408000
_cell_length_c   7.04956909
_cell_angle_alpha   112.66977354
_cell_angle_beta   112.66977355
_cell_angle_gamma   89.99999999
_symmetry_Int_Tables_number   1
_chemical_formula_structural   TcAgO4
_chemical_formula_sum   'Tc2 Ag2 O8'
_cell_volume   174.52699481
_cell_formula_units_Z   2
loop_
 _symmetry_equiv_pos_site_id
 _symmetry_equiv_pos_as_xyz
  1  'x, y, z'
loop_
 _atom_site_type_symbol
 _atom_site_label
 _atom_site_symmetry_multiplicity
 _atom_site_fract_x
 _atom_site_fract_y
 _atom_site_fract_z
 _atom_site_occupancy
  Tc  Tc0  1  0.50000000  0.50000000  0.00000000  1.0
  Tc  Tc1  1  0.25000000  0.75000000  0.50000000  1.0
  Ag  Ag2  1  0.00000000  0.00000000  0.00000000  1.0
  Ag  Ag3  1  0.75000000  0.25000000  0.50000000  1.0
  O  O4  1  0.18437400  0.54777300  0.83353800  1.0
  O  O5  1  0.29777300  0.89916400  0.33353800  1.0
  O  O6  1  0.03576500  0.43437400  0.33353800  1.0
  O  O7  1  0.64916400  0.28576500  0.83353800  1.0
  O  O8  1  0.10083600  0.96423500  0.66646200  1.0
  O  O9  1  0.71423500  0.81562600  0.16646200  1.0
  O  O10  1  0.45222700  0.35083600  0.16646200  1.0
  O  O11  1  0.56562600  0.70222700  0.66646200  1.0
