# generated using pymatgen
data_Te2Mo
_symmetry_space_group_name_H-M   'P 1'
_cell_length_a   3.48687800
_cell_length_b   6.36619200
_cell_length_c   15.54792132
_cell_angle_alpha   92.38792674
_cell_angle_beta   90.00000000
_cell_angle_gamma   90.00000000
_symmetry_Int_Tables_number   1
_chemical_formula_structural   Te2Mo
_chemical_formula_sum   'Te8 Mo4'
_cell_volume   344.83514966
_cell_formula_units_Z   4
loop_
 _symmetry_equiv_pos_site_id
 _symmetry_equiv_pos_as_xyz
  1  'x, y, z'
loop_
 _atom_site_type_symbol
 _atom_site_label
 _atom_site_symmetry_multiplicity
 _atom_site_fract_x
 _atom_site_fract_y
 _atom_site_fract_z
 _atom_site_occupancy
  Te  Te0  1  0.25000000  0.41903200  0.90509900  1.0
  Te  Te1  1  0.75000000  0.58096800  0.09490100  1.0
  Te  Te2  1  0.75000000  0.90862300  0.86675400  1.0
  Te  Te3  1  0.25000000  0.09137700  0.13324600  1.0
  Te  Te4  1  0.75000000  0.43601000  0.63327300  1.0
  Te  Te5  1  0.25000000  0.56399000  0.36672700  1.0
  Te  Te6  1  0.25000000  0.93842100  0.59474700  1.0
  Te  Te7  1  0.75000000  0.06157900  0.40525300  1.0
  Mo  Mo8  1  0.25000000  0.81826100  0.99352100  1.0
  Mo  Mo9  1  0.75000000  0.18173900  0.00647900  1.0
  Mo  Mo10  1  0.75000000  0.68032800  0.49349000  1.0
  Mo  Mo11  1  0.25000000  0.31967200  0.50650900  1.0
