# generated using pymatgen
data_Te3MoWSe
_symmetry_space_group_name_H-M   'P 1'
_cell_length_a   3.49689000
_cell_length_b   3.49688950
_cell_length_c   39.61647900
_cell_angle_alpha   90.00000000
_cell_angle_beta   90.00000000
_cell_angle_gamma   120.00000471
_symmetry_Int_Tables_number   1
_chemical_formula_structural   Te3MoWSe
_chemical_formula_sum   'Te6 Mo2 W2 Se2'
_cell_volume   419.53709336
_cell_formula_units_Z   2
loop_
 _symmetry_equiv_pos_site_id
 _symmetry_equiv_pos_as_xyz
  1  'x, y, z'
loop_
 _atom_site_type_symbol
 _atom_site_label
 _atom_site_symmetry_multiplicity
 _atom_site_fract_x
 _atom_site_fract_y
 _atom_site_fract_z
 _atom_site_occupancy
  Te  Te0  1  0.00000000  0.00000000  0.67194000  1.0
  Te  Te1  1  0.00000000  0.00000000  0.29592600  1.0
  Te  Te2  1  0.66666667  0.33333333  0.95233600  1.0
  Te  Te3  1  0.66666667  0.33333333  0.85981200  1.0
  Te  Te4  1  0.00000000  0.00000000  0.76446000  1.0
  Te  Te5  1  0.00000000  0.00000000  0.38901700  1.0
  Mo  Mo6  1  0.00000000  0.00000000  0.90609700  1.0
  Mo  Mo7  1  0.66666667  0.33333333  0.71817700  1.0
  W  W8  1  0.00000000  0.00000000  0.53033800  1.0
  W  W9  1  0.66666667  0.33333333  0.34246700  1.0
  Se  Se10  1  0.66666667  0.33333333  0.57132200  1.0
  Se  Se11  1  0.66666667  0.33333333  0.48936100  1.0
