# generated using pymatgen
data_Te6Mo3WSe2
_symmetry_space_group_name_H-M   'P 1'
_cell_length_a   3.49948600
_cell_length_b   3.49948533
_cell_length_c   39.54318900
_cell_angle_alpha   90.00000000
_cell_angle_beta   90.00000000
_cell_angle_gamma   120.00000635
_symmetry_Int_Tables_number   1
_chemical_formula_structural   Te6Mo3WSe2
_chemical_formula_sum   'Te6 Mo3 W1 Se2'
_cell_volume   419.38291340
_cell_formula_units_Z   1
loop_
 _symmetry_equiv_pos_site_id
 _symmetry_equiv_pos_as_xyz
  1  'x, y, z'
loop_
 _atom_site_type_symbol
 _atom_site_label
 _atom_site_symmetry_multiplicity
 _atom_site_fract_x
 _atom_site_fract_y
 _atom_site_fract_z
 _atom_site_occupancy
  Te  Te0  1  0.66666667  0.33333333  0.29587800  1.0
  Te  Te1  1  0.33333333  0.66666667  0.95237400  1.0
  Te  Te2  1  0.33333333  0.66666667  0.57667100  1.0
  Te  Te3  1  0.33333333  0.66666667  0.85972400  1.0
  Te  Te4  1  0.33333333  0.66666667  0.48404100  1.0
  Te  Te5  1  0.66666667  0.33333333  0.38904300  1.0
  Mo  Mo6  1  0.66666667  0.33333333  0.90610700  1.0
  Mo  Mo7  1  0.66666667  0.33333333  0.53036000  1.0
  Mo  Mo8  1  0.33333333  0.66666667  0.71823400  1.0
  W  W9  1  0.33333333  0.66666667  0.34242400  1.0
  Se  Se10  1  0.66666667  0.33333333  0.67732000  1.0
  Se  Se11  1  0.66666667  0.33333333  0.75907600  1.0
