# generated using pymatgen
data_Te6MoW3S2
_symmetry_space_group_name_H-M   'P 1'
_cell_length_a   3.45170200
_cell_length_b   3.45170146
_cell_length_c   39.42402200
_cell_angle_alpha   90.00000000
_cell_angle_beta   90.00000000
_cell_angle_gamma   120.00000513
_symmetry_Int_Tables_number   1
_chemical_formula_structural   Te6MoW3S2
_chemical_formula_sum   'Te6 Mo1 W3 S2'
_cell_volume   406.77856281
_cell_formula_units_Z   1
loop_
 _symmetry_equiv_pos_site_id
 _symmetry_equiv_pos_as_xyz
  1  'x, y, z'
loop_
 _atom_site_type_symbol
 _atom_site_label
 _atom_site_symmetry_multiplicity
 _atom_site_fract_x
 _atom_site_fract_y
 _atom_site_fract_z
 _atom_site_occupancy
  Te  Te0  1  0.00000000  0.00000000  0.67097800  1.0
  Te  Te1  1  0.66666667  0.33333333  0.95309400  1.0
  Te  Te2  1  0.66666667  0.33333333  0.57751900  1.0
  Te  Te3  1  0.66666667  0.33333333  0.85914100  1.0
  Te  Te4  1  0.66666667  0.33333333  0.48306100  1.0
  Te  Te5  1  0.00000000  0.00000000  0.76543600  1.0
  Mo  Mo6  1  0.00000000  0.00000000  0.90613800  1.0
  W  W7  1  0.00000000  0.00000000  0.53028100  1.0
  W  W8  1  0.66666667  0.33333333  0.71820300  1.0
  W  W9  1  0.66666667  0.33333333  0.34246600  1.0
  S  S10  1  0.00000000  0.00000000  0.30457900  1.0
  S  S11  1  0.00000000  0.00000000  0.38035600  1.0
