# generated using pymatgen
data_Te7As5I
_symmetry_space_group_name_H-M   'P 1'
_cell_length_a   4.07870200
_cell_length_b   7.79643295
_cell_length_c   13.57508049
_cell_angle_alpha   77.11229912
_cell_angle_beta   81.35988672
_cell_angle_gamma   74.83646962
_symmetry_Int_Tables_number   1
_chemical_formula_structural   Te7As5I
_chemical_formula_sum   'Te7 As5 I1'
_cell_volume   404.21150001
_cell_formula_units_Z   1
loop_
 _symmetry_equiv_pos_site_id
 _symmetry_equiv_pos_as_xyz
  1  'x, y, z'
loop_
 _atom_site_type_symbol
 _atom_site_label
 _atom_site_symmetry_multiplicity
 _atom_site_fract_x
 _atom_site_fract_y
 _atom_site_fract_z
 _atom_site_occupancy
  Te  Te0  1  0.17385000  0.02386400  0.62843600  1.0
  Te  Te1  1  0.82477800  0.97069500  0.37974900  1.0
  Te  Te2  1  0.90337700  0.53738200  0.65586400  1.0
  Te  Te3  1  0.09840800  0.46351700  0.33966700  1.0
  Te  Te4  1  0.48598400  0.17287600  0.85515600  1.0
  Te  Te5  1  0.51151100  0.83186200  0.14511600  1.0
  Te  Te6  1  0.79809300  0.30921700  0.09459700  1.0
  As  As7  1  0.99088600  0.01264100  0.00558700  1.0
  As  As8  1  0.67803200  0.87702500  0.76691100  1.0
  As  As9  1  0.31997600  0.13397200  0.22607600  1.0
  As  As10  1  0.36625100  0.72350100  0.54399700  1.0
  As  As11  1  0.63569700  0.27773600  0.45087000  1.0
  I  I12  1  0.21315800  0.66570900  0.90797500  1.0
