# generated using pymatgen
data_TeMo2Se2S
_symmetry_space_group_name_H-M   'P 1'
_cell_length_a   3.34361000
_cell_length_b   3.34361069
_cell_length_c   41.75879000
_cell_angle_alpha   90.00000000
_cell_angle_beta   90.00000000
_cell_angle_gamma   119.99999315
_symmetry_Int_Tables_number   1
_chemical_formula_structural   TeMo2Se2S
_chemical_formula_sum   'Te2 Mo4 Se4 S2'
_cell_volume   404.30572215
_cell_formula_units_Z   2
loop_
 _symmetry_equiv_pos_site_id
 _symmetry_equiv_pos_as_xyz
  1  'x, y, z'
loop_
 _atom_site_type_symbol
 _atom_site_label
 _atom_site_symmetry_multiplicity
 _atom_site_fract_x
 _atom_site_fract_y
 _atom_site_fract_z
 _atom_site_occupancy
  Te  Te0  1  0.33333333  0.66666667  0.57563000  1.0
  Te  Te1  1  0.33333333  0.66666667  0.48468600  1.0
  Mo  Mo2  1  0.66666667  0.33333333  0.90624900  1.0
  Mo  Mo3  1  0.66666667  0.33333333  0.53017600  1.0
  Mo  Mo4  1  0.33333333  0.66666667  0.72059400  1.0
  Mo  Mo5  1  0.33333333  0.66666667  0.34006300  1.0
  Se  Se6  1  0.66666667  0.33333333  0.68069600  1.0
  Se  Se7  1  0.66666667  0.33333333  0.30015000  1.0
  Se  Se8  1  0.66666667  0.33333333  0.76052300  1.0
  Se  Se9  1  0.66666667  0.33333333  0.37996700  1.0
  S  S10  1  0.33333333  0.66666667  0.94259700  1.0
  S  S11  1  0.33333333  0.66666667  0.86992200  1.0
