# generated using pymatgen
data_TeMo2S3
_symmetry_space_group_name_H-M   'P 1'
_cell_length_a   3.27789800
_cell_length_b   3.27793170
_cell_length_c   13.67903900
_cell_angle_alpha   90.00038186
_cell_angle_beta   90.00003005
_cell_angle_gamma   119.99958459
_symmetry_Int_Tables_number   1
_chemical_formula_structural   TeMo2S3
_chemical_formula_sum   'Te1 Mo2 S3'
_cell_volume   127.28680115
_cell_formula_units_Z   1
loop_
 _symmetry_equiv_pos_site_id
 _symmetry_equiv_pos_as_xyz
  1  'x, y, z'
loop_
 _atom_site_type_symbol
 _atom_site_label
 _atom_site_symmetry_multiplicity
 _atom_site_fract_x
 _atom_site_fract_y
 _atom_site_fract_z
 _atom_site_occupancy
  Te  Te0  1  0.33333333  0.66666667  0.88096300  1.0
  Mo  Mo1  1  0.33333333  0.66666667  0.25115800  1.0
  Mo  Mo2  1  0.66666667  0.33333333  0.73793700  1.0
  S  S3  1  0.66666667  0.33333333  0.13871600  1.0
  S  S4  1  0.66666667  0.33333333  0.36374600  1.0
  S  S5  1  0.33333333  0.66666667  0.62748100  1.0
