# generated using pymatgen
data_TeMo2SeS2
_symmetry_space_group_name_H-M   'P 1'
_cell_length_a   3.30930000
_cell_length_b   3.30930011
_cell_length_c   37.58347400
_cell_angle_alpha   90.00000000
_cell_angle_beta   90.00000000
_cell_angle_gamma   119.99999886
_symmetry_Int_Tables_number   1
_chemical_formula_structural   TeMo2SeS2
_chemical_formula_sum   'Te2 Mo4 Se2 S4'
_cell_volume   356.45101077
_cell_formula_units_Z   2
loop_
 _symmetry_equiv_pos_site_id
 _symmetry_equiv_pos_as_xyz
  1  'x, y, z'
loop_
 _atom_site_type_symbol
 _atom_site_label
 _atom_site_symmetry_multiplicity
 _atom_site_fract_x
 _atom_site_fract_y
 _atom_site_fract_z
 _atom_site_occupancy
  Te  Te0  1  0.66666667  0.33333333  0.29156500  1.0
  Te  Te1  1  0.66666667  0.33333333  0.39334500  1.0
  Mo  Mo2  1  0.66666667  0.33333333  0.90608500  1.0
  Mo  Mo3  1  0.66666667  0.33333333  0.53035600  1.0
  Mo  Mo4  1  0.33333333  0.66666667  0.71819700  1.0
  Mo  Mo5  1  0.33333333  0.66666667  0.34241400  1.0
  Se  Se6  1  0.66666667  0.33333333  0.67346200  1.0
  Se  Se7  1  0.66666667  0.33333333  0.76294300  1.0
  S  S8  1  0.33333333  0.66666667  0.94670400  1.0
  S  S9  1  0.33333333  0.66666667  0.57097200  1.0
  S  S10  1  0.33333333  0.66666667  0.86545900  1.0
  S  S11  1  0.33333333  0.66666667  0.48975100  1.0
