# generated using pymatgen
data_TeMoSe
_symmetry_space_group_name_H-M   'P 1'
_cell_length_a   3.43926000
_cell_length_b   3.43926041
_cell_length_c   14.24481100
_cell_angle_alpha   90.00000000
_cell_angle_beta   90.00000000
_cell_angle_gamma   119.99999608
_symmetry_Int_Tables_number   1
_chemical_formula_structural   TeMoSe
_chemical_formula_sum   'Te2 Mo2 Se2'
_cell_volume   145.92086982
_cell_formula_units_Z   2
loop_
 _symmetry_equiv_pos_site_id
 _symmetry_equiv_pos_as_xyz
  1  'x, y, z'
loop_
 _atom_site_type_symbol
 _atom_site_label
 _atom_site_symmetry_multiplicity
 _atom_site_fract_x
 _atom_site_fract_y
 _atom_site_fract_z
 _atom_site_occupancy
  Te  Te0  1  0.66666667  0.33333333  0.12524600  1.0
  Te  Te1  1  0.33333333  0.66666667  0.87475400  1.0
  Mo  Mo2  1  0.66666667  0.33333333  0.74374600  1.0
  Mo  Mo3  1  0.33333333  0.66666667  0.25625400  1.0
  Se  Se4  1  0.33333333  0.66666667  0.63016400  1.0
  Se  Se5  1  0.66666667  0.33333333  0.36983600  1.0
