# generated using pymatgen
data_TeOF2
_symmetry_space_group_name_H-M   'P 1'
_cell_length_a   5.45577100
_cell_length_b   5.69715767
_cell_length_c   8.36548200
_cell_angle_alpha   90.00000000
_cell_angle_beta   90.00000000
_cell_angle_gamma   96.42525926
_symmetry_Int_Tables_number   1
_chemical_formula_structural   TeOF2
_chemical_formula_sum   'Te4 O4 F8'
_cell_volume   258.38589064
_cell_formula_units_Z   4
loop_
 _symmetry_equiv_pos_site_id
 _symmetry_equiv_pos_as_xyz
  1  'x, y, z'
loop_
 _atom_site_type_symbol
 _atom_site_label
 _atom_site_symmetry_multiplicity
 _atom_site_fract_x
 _atom_site_fract_y
 _atom_site_fract_z
 _atom_site_occupancy
  Te  Te0  1  0.51968900  0.34780800  0.85254700  1.0
  Te  Te1  1  0.12699700  0.96475000  0.08930100  1.0
  Te  Te2  1  0.48031100  0.65219200  0.35254700  1.0
  Te  Te3  1  0.87300300  0.03525000  0.58930100  1.0
  O  O4  1  0.69412500  0.94518800  0.39438200  1.0
  O  O5  1  0.39421500  0.77465400  0.14684200  1.0
  O  O6  1  0.30587500  0.05481200  0.89438200  1.0
  O  O7  1  0.60578500  0.22534600  0.64684200  1.0
  F  F8  1  0.65899400  0.72861400  0.66912400  1.0
  F  F9  1  0.34100600  0.27138600  0.16912400  1.0
  F  F10  1  0.99792000  0.70083800  0.95363400  1.0
  F  F11  1  0.76682600  0.56501000  0.23514100  1.0
  F  F12  1  0.00208000  0.29916200  0.45363400  1.0
  F  F13  1  0.19231300  0.84045600  0.43052900  1.0
  F  F14  1  0.23317400  0.43499000  0.73514100  1.0
  F  F15  1  0.80768700  0.15954400  0.93052900  1.0
