# generated using pymatgen
data_Th(FeSi)2
_symmetry_space_group_name_H-M   'P 1'
_cell_length_a   4.03496800
_cell_length_b   4.03496800
_cell_length_c   5.58196746
_cell_angle_alpha   111.18797168
_cell_angle_beta   111.18797169
_cell_angle_gamma   89.99999999
_symmetry_Int_Tables_number   1
_chemical_formula_structural   Th(FeSi)2
_chemical_formula_sum   'Th1 Fe2 Si2'
_cell_volume   78.11111293
_cell_formula_units_Z   1
loop_
 _symmetry_equiv_pos_site_id
 _symmetry_equiv_pos_as_xyz
  1  'x, y, z'
loop_
 _atom_site_type_symbol
 _atom_site_label
 _atom_site_symmetry_multiplicity
 _atom_site_fract_x
 _atom_site_fract_y
 _atom_site_fract_z
 _atom_site_occupancy
  Th  Th0  1  0.00000000  0.00000000  0.00000000  1.0
  Fe  Fe1  1  0.25000000  0.75000000  0.50000000  1.0
  Fe  Fe2  1  0.75000000  0.25000000  0.50000000  1.0
  Si  Si3  1  0.63792600  0.63792600  0.27585200  1.0
  Si  Si4  1  0.36207400  0.36207400  0.72414800  1.0
