# generated using pymatgen
data_Th2CoSi3
_symmetry_space_group_name_H-M   'P 1'
_cell_length_a   4.07489200
_cell_length_b   4.14960200
_cell_length_c   7.54185485
_cell_angle_alpha   105.96826383
_cell_angle_beta   105.67330269
_cell_angle_gamma   90.00000001
_symmetry_Int_Tables_number   1
_chemical_formula_structural   Th2CoSi3
_chemical_formula_sum   'Th2 Co1 Si3'
_cell_volume   117.66601225
_cell_formula_units_Z   1
loop_
 _symmetry_equiv_pos_site_id
 _symmetry_equiv_pos_as_xyz
  1  'x, y, z'
loop_
 _atom_site_type_symbol
 _atom_site_label
 _atom_site_symmetry_multiplicity
 _atom_site_fract_x
 _atom_site_fract_y
 _atom_site_fract_z
 _atom_site_occupancy
  Th  Th0  1  0.74962500  0.24962500  0.49925000  1.0
  Th  Th1  1  0.99648000  0.99648000  0.99296000  1.0
  Co  Co2  1  0.33665100  0.83665100  0.67330200  1.0
  Si  Si3  1  0.41098200  0.41098200  0.82196400  1.0
  Si  Si4  1  0.17386500  0.67386500  0.34773000  1.0
  Si  Si5  1  0.58239600  0.58239600  0.16479200  1.0
