# generated using pymatgen
data_Th2Tl
_symmetry_space_group_name_H-M   'P 1'
_cell_length_a   6.06737600
_cell_length_b   6.36770598
_cell_length_c   6.36770598
_cell_angle_alpha   76.88102520
_cell_angle_beta   61.54830180
_cell_angle_gamma   61.54830180
_symmetry_Int_Tables_number   1
_chemical_formula_structural   Th2Tl
_chemical_formula_sum   'Th4 Tl2'
_cell_volume   190.17836082
_cell_formula_units_Z   2
loop_
 _symmetry_equiv_pos_site_id
 _symmetry_equiv_pos_as_xyz
  1  'x, y, z'
loop_
 _atom_site_type_symbol
 _atom_site_label
 _atom_site_symmetry_multiplicity
 _atom_site_fract_x
 _atom_site_fract_y
 _atom_site_fract_z
 _atom_site_occupancy
  Th  Th0  1  0.84694100  0.80611700  0.50000000  1.0
  Th  Th1  1  0.15305900  0.19388300  0.50000000  1.0
  Th  Th2  1  0.65305800  0.50000000  0.19388400  1.0
  Th  Th3  1  0.34694200  0.50000000  0.80611600  1.0
  Tl  Tl4  1  0.25000000  1.00000000  0.00000000  1.0
  Tl  Tl5  1  0.75000000  1.00000000  0.00000000  1.0
