# generated using pymatgen
data_Th3Pd4
_symmetry_space_group_name_H-M   'P 1'
_cell_length_a   5.84168067
_cell_length_b   8.22437690
_cell_length_c   8.22437690
_cell_angle_alpha   114.57695094
_cell_angle_beta   103.69556451
_cell_angle_gamma   103.69556451
_symmetry_Int_Tables_number   1
_chemical_formula_structural   Th3Pd4
_chemical_formula_sum   'Th6 Pd8'
_cell_volume   323.01326812
_cell_formula_units_Z   2
loop_
 _symmetry_equiv_pos_site_id
 _symmetry_equiv_pos_as_xyz
  1  'x, y, z'
loop_
 _atom_site_type_symbol
 _atom_site_label
 _atom_site_symmetry_multiplicity
 _atom_site_fract_x
 _atom_site_fract_y
 _atom_site_fract_z
 _atom_site_occupancy
  Th  Th0  1  0.72140300  0.75139000  0.12985700  1.0
  Th  Th1  1  0.59154600  0.87014300  0.62153300  1.0
  Th  Th2  1  0.97001300  0.37846700  0.24861000  1.0
  Th  Th3  1  0.27859700  0.24861000  0.87014300  1.0
  Th  Th4  1  0.40845400  0.12985700  0.37846700  1.0
  Th  Th5  1  0.02998700  0.62153300  0.75139000  1.0
  Pd  Pd6  1  0.00000000  0.00000000  0.00000000  1.0
  Pd  Pd7  1  0.50000000  0.00000000  0.00000000  1.0
  Pd  Pd8  1  0.43960600  0.49994500  0.66518100  1.0
  Pd  Pd9  1  0.77442500  0.33481900  0.83476400  1.0
  Pd  Pd10  1  0.93966100  0.16523600  0.50005500  1.0
  Pd  Pd11  1  0.56039400  0.50005500  0.33481900  1.0
  Pd  Pd12  1  0.22557500  0.66518100  0.16523600  1.0
  Pd  Pd13  1  0.06033900  0.83476400  0.49994500  1.0
