# generated using pymatgen
data_ThCl4
_symmetry_space_group_name_H-M   'P 1'
_cell_length_a   6.55506400
_cell_length_b   6.55506400
_cell_length_c   7.97736415
_cell_angle_alpha   114.25849329
_cell_angle_beta   114.25849329
_cell_angle_gamma   89.99999999
_symmetry_Int_Tables_number   1
_chemical_formula_structural   ThCl4
_chemical_formula_sum   'Th2 Cl8'
_cell_volume   278.97981892
_cell_formula_units_Z   2
loop_
 _symmetry_equiv_pos_site_id
 _symmetry_equiv_pos_as_xyz
  1  'x, y, z'
loop_
 _atom_site_type_symbol
 _atom_site_label
 _atom_site_symmetry_multiplicity
 _atom_site_fract_x
 _atom_site_fract_y
 _atom_site_fract_z
 _atom_site_occupancy
  Th  Th0  1  0.75000000  0.25000000  0.50000000  1.0
  Th  Th1  1  0.00000000  0.00000000  0.00000000  1.0
  Cl  Cl2  1  0.41125800  0.86259400  0.15685000  1.0
  Cl  Cl3  1  0.13740600  0.25440700  0.84314900  1.0
  Cl  Cl4  1  0.04425600  0.66125700  0.65684900  1.0
  Cl  Cl5  1  0.61259400  0.99559300  0.65685100  1.0
  Cl  Cl6  1  0.70574400  0.58874300  0.84315100  1.0
  Cl  Cl7  1  0.33874200  0.38740600  0.34315000  1.0
  Cl  Cl8  1  0.00440800  0.95574400  0.34315000  1.0
  Cl  Cl9  1  0.74559200  0.29425600  0.15685000  1.0
