# generated using pymatgen
data_ThCoSn
_symmetry_space_group_name_H-M   'P 1'
_cell_length_a   4.06992600
_cell_length_b   7.36835200
_cell_length_c   7.36835199
_cell_angle_alpha   120.00000006
_cell_angle_beta   90.00000000
_cell_angle_gamma   90.00000000
_symmetry_Int_Tables_number   1
_chemical_formula_structural   ThCoSn
_chemical_formula_sum   'Th3 Co3 Sn3'
_cell_volume   191.36295709
_cell_formula_units_Z   3
loop_
 _symmetry_equiv_pos_site_id
 _symmetry_equiv_pos_as_xyz
  1  'x, y, z'
loop_
 _atom_site_type_symbol
 _atom_site_label
 _atom_site_symmetry_multiplicity
 _atom_site_fract_x
 _atom_site_fract_y
 _atom_site_fract_z
 _atom_site_occupancy
  Th  Th0  1  0.50000000  0.00000000  0.58678700  1.0
  Th  Th1  1  0.50000000  0.58678700  1.00000000  1.0
  Th  Th2  1  0.50000000  0.41321300  0.41321300  1.0
  Co  Co3  1  1.00000000  0.66666667  0.33333333  1.0
  Co  Co4  1  0.50000000  0.00000000  0.00000000  1.0
  Co  Co5  1  1.00000000  0.33333333  0.66666667  1.0
  Sn  Sn6  1  0.00000000  0.24916500  1.00000000  1.0
  Sn  Sn7  1  1.00000000  0.00000000  0.24916500  1.0
  Sn  Sn8  1  0.00000000  0.75083500  0.75083500  1.0
