# generated using pymatgen
data_ThGeI6
_symmetry_space_group_name_H-M   'P 1'
_cell_length_a   7.57851000
_cell_length_b   7.57850984
_cell_length_c   13.99692100
_cell_angle_alpha   90.00000000
_cell_angle_beta   90.00000000
_cell_angle_gamma   120.00000069
_symmetry_Int_Tables_number   1
_chemical_formula_structural   ThGeI6
_chemical_formula_sum   'Th2 Ge2 I12'
_cell_volume   696.19481873
_cell_formula_units_Z   2
loop_
 _symmetry_equiv_pos_site_id
 _symmetry_equiv_pos_as_xyz
  1  'x, y, z'
loop_
 _atom_site_type_symbol
 _atom_site_label
 _atom_site_symmetry_multiplicity
 _atom_site_fract_x
 _atom_site_fract_y
 _atom_site_fract_z
 _atom_site_occupancy
  Th  Th0  1  0.00000000  0.00000000  0.50000000  1.0
  Th  Th1  1  0.00000000  0.00000000  0.00000000  1.0
  Ge  Ge2  1  0.33333333  0.66666667  0.25000000  1.0
  Ge  Ge3  1  0.66666667  0.33333333  0.75000000  1.0
  I  I4  1  0.33296600  0.33571000  0.37397400  1.0
  I  I5  1  0.66703400  0.66429000  0.62602600  1.0
  I  I6  1  0.00274400  0.66703400  0.37397400  1.0
  I  I7  1  0.33296600  0.99725600  0.12602600  1.0
  I  I8  1  0.99725600  0.33296600  0.62602600  1.0
  I  I9  1  0.66703400  0.00274400  0.87397400  1.0
  I  I10  1  0.66429000  0.99725600  0.37397400  1.0
  I  I11  1  0.00274400  0.33571000  0.12602600  1.0
  I  I12  1  0.33571000  0.00274400  0.62602600  1.0
  I  I13  1  0.99725600  0.66429000  0.87397400  1.0
  I  I14  1  0.66429000  0.66703400  0.12602600  1.0
  I  I15  1  0.33571000  0.33296600  0.87397400  1.0
