# generated using pymatgen
data_Ti10CuSn6
_symmetry_space_group_name_H-M   'P 1'
_cell_length_a   5.50324500
_cell_length_b   8.15994400
_cell_length_c   8.15994418
_cell_angle_alpha   119.99999929
_cell_angle_beta   90.00000000
_cell_angle_gamma   90.00000000
_symmetry_Int_Tables_number   1
_chemical_formula_structural   Ti10CuSn6
_chemical_formula_sum   'Ti10 Cu1 Sn6'
_cell_volume   317.33929232
_cell_formula_units_Z   1
loop_
 _symmetry_equiv_pos_site_id
 _symmetry_equiv_pos_as_xyz
  1  'x, y, z'
loop_
 _atom_site_type_symbol
 _atom_site_label
 _atom_site_symmetry_multiplicity
 _atom_site_fract_x
 _atom_site_fract_y
 _atom_site_fract_z
 _atom_site_occupancy
  Ti  Ti0  1  0.50000000  0.33333333  0.66666667  1.0
  Ti  Ti1  1  0.50000000  0.66666667  0.33333333  1.0
  Ti  Ti2  1  1.00000000  0.66666667  0.33333333  1.0
  Ti  Ti3  1  0.00000000  0.33333333  0.66666667  1.0
  Ti  Ti4  1  0.75951100  0.26230000  0.00000000  1.0
  Ti  Ti5  1  0.75951100  0.73770000  0.73770000  1.0
  Ti  Ti6  1  0.75951100  0.00000000  0.26230000  1.0
  Ti  Ti7  1  0.24048900  0.73770000  1.00000000  1.0
  Ti  Ti8  1  0.24048900  0.26230000  0.26230000  1.0
  Ti  Ti9  1  0.24048900  1.00000000  0.73770000  1.0
  Cu  Cu10  1  0.50000000  0.00000000  0.00000000  1.0
  Sn  Sn11  1  0.74526000  0.61441900  0.00000000  1.0
  Sn  Sn12  1  0.74526000  0.38558100  0.38558100  1.0
  Sn  Sn13  1  0.74526000  1.00000000  0.61441900  1.0
  Sn  Sn14  1  0.25474000  0.38558100  0.00000000  1.0
  Sn  Sn15  1  0.25474000  0.61441900  0.61441900  1.0
  Sn  Sn16  1  0.25474000  1.00000000  0.38558100  1.0
