# generated using pymatgen
data_Ti2CoS4
_symmetry_space_group_name_H-M   'P 1'
_cell_length_a   3.38285200
_cell_length_b   5.82416109
_cell_length_c   6.49607526
_cell_angle_alpha   116.26074870
_cell_angle_beta   105.09240953
_cell_angle_gamma   90.00000000
_symmetry_Int_Tables_number   1
_chemical_formula_structural   Ti2CoS4
_chemical_formula_sum   'Ti2 Co1 S4'
_cell_volume   109.83351835
_cell_formula_units_Z   1
loop_
 _symmetry_equiv_pos_site_id
 _symmetry_equiv_pos_as_xyz
  1  'x, y, z'
loop_
 _atom_site_type_symbol
 _atom_site_label
 _atom_site_symmetry_multiplicity
 _atom_site_fract_x
 _atom_site_fract_y
 _atom_site_fract_z
 _atom_site_occupancy
  Ti  Ti0  1  0.25637500  0.26486300  0.51275000  1.0
  Ti  Ti1  1  0.74362500  0.73513700  0.48725000  1.0
  Co  Co2  1  0.00000000  0.00000000  0.00000000  1.0
  S  S3  1  0.11461800  0.44365700  0.22923600  1.0
  S  S4  1  0.88538200  0.55634300  0.77076400  1.0
  S  S5  1  0.37982200  0.04032200  0.75964400  1.0
  S  S6  1  0.62017800  0.95967800  0.24035600  1.0
