# generated using pymatgen
data_Ti2MnFeO6
_symmetry_space_group_name_H-M   'P 1'
_cell_length_a   5.15485385
_cell_length_b   5.16095943
_cell_length_c   5.61867307
_cell_angle_alpha   90.84238127
_cell_angle_beta   116.48366112
_cell_angle_gamma   119.64056090
_symmetry_Int_Tables_number   1
_chemical_formula_structural   Ti2MnFeO6
_chemical_formula_sum   'Ti2 Mn1 Fe1 O6'
_cell_volume   110.84130801
_cell_formula_units_Z   1
loop_
 _symmetry_equiv_pos_site_id
 _symmetry_equiv_pos_as_xyz
  1  'x, y, z'
loop_
 _atom_site_type_symbol
 _atom_site_label
 _atom_site_symmetry_multiplicity
 _atom_site_fract_x
 _atom_site_fract_y
 _atom_site_fract_z
 _atom_site_occupancy
  Ti  Ti0  1  0.28874400  0.14495500  0.43599400  1.0
  Ti  Ti1  1  0.70819900  0.85471000  0.56162900  1.0
  Mn  Mn2  1  0.28343400  0.64346800  0.92574600  1.0
  Fe  Fe3  1  0.70737200  0.35477000  0.06556700  1.0
  O  O4  1  0.77692800  0.21504100  0.74115800  1.0
  O  O5  1  0.52020200  0.56455400  0.73264200  1.0
  O  O6  1  0.16715100  0.95531800  0.73190100  1.0
  O  O7  1  0.22252100  0.78199900  0.26902100  1.0
  O  O8  1  0.49106200  0.43474900  0.26623400  1.0
  O  O9  1  0.83438700  0.05043500  0.27010800  1.0
