# generated using pymatgen
data_Ti3C2
_symmetry_space_group_name_H-M   'P 1'
_cell_length_a   3.07064400
_cell_length_b   3.07064339
_cell_length_c   15.13096600
_cell_angle_alpha   90.00000000
_cell_angle_beta   90.00000000
_cell_angle_gamma   120.00000663
_symmetry_Int_Tables_number   1
_chemical_formula_structural   Ti3C2
_chemical_formula_sum   'Ti6 C4'
_cell_volume   123.55380084
_cell_formula_units_Z   2
loop_
 _symmetry_equiv_pos_site_id
 _symmetry_equiv_pos_as_xyz
  1  'x, y, z'
loop_
 _atom_site_type_symbol
 _atom_site_label
 _atom_site_symmetry_multiplicity
 _atom_site_fract_x
 _atom_site_fract_y
 _atom_site_fract_z
 _atom_site_occupancy
  Ti  Ti0  1  0.33333333  0.66666667  0.65679200  1.0
  Ti  Ti1  1  0.66666667  0.33333333  0.15679200  1.0
  Ti  Ti2  1  0.66666667  0.33333333  0.34320800  1.0
  Ti  Ti3  1  0.33333333  0.66666667  0.84320800  1.0
  Ti  Ti4  1  0.00000000  0.00000000  0.50000000  1.0
  Ti  Ti5  1  0.00000000  0.00000000  0.00000000  1.0
  C  C6  1  0.66666667  0.33333333  0.58589200  1.0
  C  C7  1  0.33333333  0.66666667  0.08589200  1.0
  C  C8  1  0.66666667  0.33333333  0.91410800  1.0
  C  C9  1  0.33333333  0.66666667  0.41410800  1.0
