# generated using pymatgen
data_Ti3Ge
_symmetry_space_group_name_H-M   'P 1'
_cell_length_a   5.13889200
_cell_length_b   7.66857756
_cell_length_c   7.66857756
_cell_angle_alpha   83.55402634
_cell_angle_beta   70.42371510
_cell_angle_gamma   70.42371509
_symmetry_Int_Tables_number   1
_chemical_formula_structural   Ti3Ge
_chemical_formula_sum   'Ti12 Ge4'
_cell_volume   268.27600612
_cell_formula_units_Z   4
loop_
 _symmetry_equiv_pos_site_id
 _symmetry_equiv_pos_as_xyz
  1  'x, y, z'
loop_
 _atom_site_type_symbol
 _atom_site_label
 _atom_site_symmetry_multiplicity
 _atom_site_fract_x
 _atom_site_fract_y
 _atom_site_fract_z
 _atom_site_occupancy
  Ti  Ti0  1  0.11147000  0.18814100  0.02230800  1.0
  Ti  Ti1  1  0.32191900  0.81185900  0.97769200  1.0
  Ti  Ti2  1  0.70038900  0.97769200  0.18814100  1.0
  Ti  Ti3  1  0.86622200  0.02230800  0.81185900  1.0
  Ti  Ti4  1  0.95887700  0.38014400  0.66943600  1.0
  Ti  Ti5  1  0.00845700  0.61985600  0.33056400  1.0
  Ti  Ti6  1  0.66097900  0.33056400  0.38014400  1.0
  Ti  Ti7  1  0.37168700  0.66943600  0.61985600  1.0
  Ti  Ti8  1  0.54586900  0.40290500  0.02935900  1.0
  Ti  Ti9  1  0.97813400  0.59709500  0.97064100  1.0
  Ti  Ti10  1  0.05122600  0.97064100  0.40290400  1.0
  Ti  Ti11  1  0.42477100  0.02935900  0.59709600  1.0
  Ge  Ge12  1  0.44483000  0.32451700  0.74222700  1.0
  Ge  Ge13  1  0.51157400  0.67548300  0.25777300  1.0
  Ge  Ge14  1  0.23065300  0.25777300  0.32451700  1.0
  Ge  Ge15  1  0.81294300  0.74222700  0.67548300  1.0
