# generated using pymatgen
data_Ti3Mn(CuS4)2
_symmetry_space_group_name_H-M   'P 1'
_cell_length_a   7.01591612
_cell_length_b   7.01591612
_cell_length_c   7.13375962
_cell_angle_alpha   60.54496054
_cell_angle_beta   60.54496054
_cell_angle_gamma   59.99999892
_symmetry_Int_Tables_number   1
_chemical_formula_structural   Ti3Mn(CuS4)2
_chemical_formula_sum   'Ti3 Mn1 Cu2 S8'
_cell_volume   250.32307017
_cell_formula_units_Z   1
loop_
 _symmetry_equiv_pos_site_id
 _symmetry_equiv_pos_as_xyz
  1  'x, y, z'
loop_
 _atom_site_type_symbol
 _atom_site_label
 _atom_site_symmetry_multiplicity
 _atom_site_fract_x
 _atom_site_fract_y
 _atom_site_fract_z
 _atom_site_occupancy
  Ti  Ti0  1  0.50000000  0.00000000  0.00000000  1.0
  Ti  Ti1  1  0.50000000  0.50000000  0.00000000  1.0
  Ti  Ti2  1  0.00000000  0.50000000  0.00000000  1.0
  Mn  Mn3  1  0.50000000  0.50000000  0.50000000  1.0
  Cu  Cu4  1  0.12497500  0.12497500  0.62507500  1.0
  Cu  Cu5  1  0.87502500  0.87502500  0.37492500  1.0
  S  S6  1  0.74575400  0.74575400  0.76273800  1.0
  S  S7  1  0.74375900  0.26797300  0.24450900  1.0
  S  S8  1  0.74375900  0.74375900  0.24450900  1.0
  S  S9  1  0.26797300  0.74375900  0.24450900  1.0
  S  S10  1  0.25424600  0.25424600  0.23726200  1.0
  S  S11  1  0.25624100  0.73202700  0.75549100  1.0
  S  S12  1  0.25624100  0.25624100  0.75549100  1.0
  S  S13  1  0.73202700  0.25624100  0.75549100  1.0
