# generated using pymatgen
data_Ti3N2O3
_symmetry_space_group_name_H-M   'P 1'
_cell_length_a   3.81655000
_cell_length_b   5.29433934
_cell_length_c   9.97358443
_cell_angle_alpha   89.53075186
_cell_angle_beta   90.00000000
_cell_angle_gamma   111.12702696
_symmetry_Int_Tables_number   1
_chemical_formula_structural   Ti3N2O3
_chemical_formula_sum   'Ti6 N4 O6'
_cell_volume   187.97416677
_cell_formula_units_Z   2
loop_
 _symmetry_equiv_pos_site_id
 _symmetry_equiv_pos_as_xyz
  1  'x, y, z'
loop_
 _atom_site_type_symbol
 _atom_site_label
 _atom_site_symmetry_multiplicity
 _atom_site_fract_x
 _atom_site_fract_y
 _atom_site_fract_z
 _atom_site_occupancy
  Ti  Ti0  1  0.80830000  0.61660000  0.24868800  1.0
  Ti  Ti1  1  0.85576000  0.71152000  0.94706300  1.0
  Ti  Ti2  1  0.86530400  0.73060800  0.55304600  1.0
  Ti  Ti3  1  0.20246700  0.40493400  0.74718900  1.0
  Ti  Ti4  1  0.14394800  0.28789600  0.04810800  1.0
  Ti  Ti5  1  0.13532500  0.27065000  0.44321700  1.0
  N  N6  1  0.69398900  0.38797800  0.07688500  1.0
  N  N7  1  0.95417500  0.90835000  0.38174500  1.0
  N  N8  1  0.30526900  0.61053800  0.57525300  1.0
  N  N9  1  0.30748200  0.61496400  0.92205500  1.0
  O  O10  1  0.68477800  0.36955600  0.42431700  1.0
  O  O11  1  0.75269800  0.50539600  0.75291100  1.0
  O  O12  1  0.95417200  0.90834400  0.11764300  1.0
  O  O13  1  0.24583300  0.49166600  0.25805100  1.0
  O  O14  1  0.04586300  0.09172600  0.88276000  1.0
  O  O15  1  0.04462900  0.08925800  0.62106800  1.0
