# generated using pymatgen
data_Ti5FeSb2
_symmetry_space_group_name_H-M   'P 1'
_cell_length_a   5.14359400
_cell_length_b   7.82579885
_cell_length_c   7.82579885
_cell_angle_alpha   83.80007388
_cell_angle_beta   70.81432023
_cell_angle_gamma   70.81432022
_symmetry_Int_Tables_number   1
_chemical_formula_structural   Ti5FeSb2
_chemical_formula_sum   'Ti10 Fe2 Sb4'
_cell_volume   280.98933409
_cell_formula_units_Z   2
loop_
 _symmetry_equiv_pos_site_id
 _symmetry_equiv_pos_as_xyz
  1  'x, y, z'
loop_
 _atom_site_type_symbol
 _atom_site_label
 _atom_site_symmetry_multiplicity
 _atom_site_fract_x
 _atom_site_fract_y
 _atom_site_fract_z
 _atom_site_occupancy
  Ti  Ti0  1  0.43103300  0.26760700  0.87032700  1.0
  Ti  Ti1  1  0.56896700  0.73239300  0.12967300  1.0
  Ti  Ti2  1  0.75000000  0.50000000  0.50000000  1.0
  Ti  Ti3  1  0.25000000  0.50000000  0.50000000  1.0
  Ti  Ti4  1  0.30136000  0.12967300  0.26760700  1.0
  Ti  Ti5  1  0.69864000  0.87032700  0.73239300  1.0
  Ti  Ti6  1  0.06896700  0.12967300  0.73239300  1.0
  Ti  Ti7  1  0.80136000  0.26760700  0.12967300  1.0
  Ti  Ti8  1  0.93103300  0.87032700  0.26760700  1.0
  Ti  Ti9  1  0.19864000  0.73239300  0.87032700  1.0
  Fe  Fe10  1  0.75000000  1.00000000  0.00000000  1.0
  Fe  Fe11  1  0.25000000  1.00000000  0.00000000  1.0
  Sb  Sb12  1  0.66416300  0.17167400  0.50000000  1.0
  Sb  Sb13  1  0.83583700  0.50000000  0.82832600  1.0
  Sb  Sb14  1  0.33583700  0.82832600  0.50000000  1.0
  Sb  Sb15  1  0.16416300  0.50000000  0.17167400  1.0
