# generated using pymatgen
data_TiAl2O5
_symmetry_space_group_name_H-M   'P 1'
_cell_length_a   3.65988495
_cell_length_b   5.10200446
_cell_length_c   9.62725000
_cell_angle_alpha   90.00000000
_cell_angle_beta   90.00000000
_cell_angle_gamma   110.95719184
_symmetry_Int_Tables_number   1
_chemical_formula_structural   TiAl2O5
_chemical_formula_sum   'Ti2 Al4 O10'
_cell_volume   167.87524996
_cell_formula_units_Z   2
loop_
 _symmetry_equiv_pos_site_id
 _symmetry_equiv_pos_as_xyz
  1  'x, y, z'
loop_
 _atom_site_type_symbol
 _atom_site_label
 _atom_site_symmetry_multiplicity
 _atom_site_fract_x
 _atom_site_fract_y
 _atom_site_fract_z
 _atom_site_occupancy
  Ti  Ti0  1  0.12587500  0.25478000  0.93788400  1.0
  Ti  Ti1  1  0.87412500  0.74522000  0.43788400  1.0
  Al  Al2  1  0.14271100  0.28415700  0.56860500  1.0
  Al  Al3  1  0.19135800  0.37936300  0.24535200  1.0
  Al  Al4  1  0.80864200  0.62063700  0.74535200  1.0
  Al  Al5  1  0.85728900  0.71584300  0.06860500  1.0
  O  O6  1  0.06063300  0.11676400  0.38756300  1.0
  O  O7  1  0.04401200  0.08807400  0.11948700  1.0
  O  O8  1  0.24507600  0.49232300  0.74553600  1.0
  O  O9  1  0.31794400  0.63338700  0.42090500  1.0
  O  O10  1  0.30751300  0.61561300  0.07466800  1.0
  O  O11  1  0.68205600  0.36661300  0.92090500  1.0
  O  O12  1  0.69248700  0.38438700  0.57466800  1.0
  O  O13  1  0.75492400  0.50767700  0.24553600  1.0
  O  O14  1  0.93936700  0.88323600  0.88756300  1.0
  O  O15  1  0.95598800  0.91192600  0.61948700  1.0
