# generated using pymatgen
data_TiCdO3
_symmetry_space_group_name_H-M   'P 1'
_cell_length_a   5.30652229
_cell_length_b   5.30652229
_cell_length_c   5.89365028
_cell_angle_alpha   63.24413592
_cell_angle_beta   63.24413592
_cell_angle_gamma   59.99999638
_symmetry_Int_Tables_number   1
_chemical_formula_structural   TiCdO3
_chemical_formula_sum   'Ti2 Cd2 O6'
_cell_volume   122.78027732
_cell_formula_units_Z   2
loop_
 _symmetry_equiv_pos_site_id
 _symmetry_equiv_pos_as_xyz
  1  'x, y, z'
loop_
 _atom_site_type_symbol
 _atom_site_label
 _atom_site_symmetry_multiplicity
 _atom_site_fract_x
 _atom_site_fract_y
 _atom_site_fract_z
 _atom_site_occupancy
  Ti  Ti0  1  0.14923900  0.14923900  0.55228300  1.0
  Ti  Ti1  1  0.85076100  0.85076100  0.44771700  1.0
  Cd  Cd2  1  0.36326800  0.36326800  0.91019600  1.0
  Cd  Cd3  1  0.63673200  0.63673200  0.08980400  1.0
  O  O4  1  0.96332400  0.56291200  0.27921800  1.0
  O  O5  1  0.19454600  0.96332400  0.27921800  1.0
  O  O6  1  0.56291200  0.19454600  0.27921800  1.0
  O  O7  1  0.03667600  0.43708800  0.72078200  1.0
  O  O8  1  0.43708800  0.80545400  0.72078200  1.0
  O  O9  1  0.80545400  0.03667600  0.72078200  1.0
