# generated using pymatgen
data_TiNbTl(O2F)2
_symmetry_space_group_name_H-M   'P 1'
_cell_length_a   7.36351286
_cell_length_b   7.36351286
_cell_length_c   7.45304822
_cell_angle_alpha   119.01587722
_cell_angle_beta   119.01587722
_cell_angle_gamma   90.21745118
_symmetry_Int_Tables_number   1
_chemical_formula_structural   TiNbTl(O2F)2
_chemical_formula_sum   'Ti2 Nb2 Tl2 O8 F4'
_cell_volume   293.54626536
_cell_formula_units_Z   2
loop_
 _symmetry_equiv_pos_site_id
 _symmetry_equiv_pos_as_xyz
  1  'x, y, z'
loop_
 _atom_site_type_symbol
 _atom_site_label
 _atom_site_symmetry_multiplicity
 _atom_site_fract_x
 _atom_site_fract_y
 _atom_site_fract_z
 _atom_site_occupancy
  Ti  Ti0  1  0.00118800  0.49025000  0.98584900  1.0
  Ti  Ti1  1  0.49025000  0.00118800  0.48584900  1.0
  Nb  Nb2  1  0.01884800  0.00210300  0.01071300  1.0
  Nb  Nb3  1  0.00210300  0.01884800  0.51071300  1.0
  Tl  Tl4  1  0.58678000  0.26473100  0.17257200  1.0
  Tl  Tl5  1  0.26473100  0.58678000  0.67257200  1.0
  O  O6  1  0.94782200  0.69192900  0.89786100  1.0
  O  O7  1  0.93069800  0.06763800  0.25027600  1.0
  O  O8  1  0.69192900  0.94782200  0.39786100  1.0
  O  O9  1  0.30892300  0.04996200  0.60728500  1.0
  O  O10  1  0.32378500  0.06960400  0.25792700  1.0
  O  O11  1  0.06763800  0.93069800  0.75027600  1.0
  O  O12  1  0.04996200  0.30892300  0.10728500  1.0
  O  O13  1  0.06960400  0.32378500  0.75792700  1.0
  F  F14  1  0.93169800  0.67561300  0.24681200  1.0
  F  F15  1  0.31479600  0.68363200  0.25070500  1.0
  F  F16  1  0.67561300  0.93169800  0.74681200  1.0
  F  F17  1  0.68363200  0.31479600  0.75070500  1.0
