# generated using pymatgen
data_TiNbO4
_symmetry_space_group_name_H-M   'P 1'
_cell_length_a   5.66377320
_cell_length_b   5.66377320
_cell_length_c   7.40348729
_cell_angle_alpha   70.90166996
_cell_angle_beta   70.90166996
_cell_angle_gamma   73.73762234
_symmetry_Int_Tables_number   1
_chemical_formula_structural   TiNbO4
_chemical_formula_sum   'Ti3 Nb3 O12'
_cell_volume   208.04990457
_cell_formula_units_Z   3
loop_
 _symmetry_equiv_pos_site_id
 _symmetry_equiv_pos_as_xyz
  1  'x, y, z'
loop_
 _atom_site_type_symbol
 _atom_site_label
 _atom_site_symmetry_multiplicity
 _atom_site_fract_x
 _atom_site_fract_y
 _atom_site_fract_z
 _atom_site_occupancy
  Ti  Ti0  1  0.67205000  0.67205000  0.32886600  1.0
  Ti  Ti1  1  0.66267100  0.66267100  0.84135100  1.0
  Ti  Ti2  1  0.99153700  0.99153700  0.99782400  1.0
  Nb  Nb3  1  0.33581900  0.33581900  0.16504400  1.0
  Nb  Nb4  1  0.33821400  0.33821400  0.67192100  1.0
  Nb  Nb5  1  0.00208100  0.00208100  0.49451500  1.0
  O  O6  1  0.95793500  0.37227400  0.33524700  1.0
  O  O7  1  0.63260300  0.02739700  0.66980500  1.0
  O  O8  1  0.43375300  0.43375300  0.36937000  1.0
  O  O9  1  0.76770900  0.76770900  0.03555400  1.0
  O  O10  1  0.09993700  0.09993700  0.70173300  1.0
  O  O11  1  0.89920000  0.89920000  0.29309700  1.0
  O  O12  1  0.22754400  0.22754400  0.97049300  1.0
  O  O13  1  0.56967100  0.56967100  0.63059700  1.0
  O  O14  1  0.02739700  0.63260300  0.66980500  1.0
  O  O15  1  0.37227400  0.95793500  0.33524700  1.0
  O  O16  1  0.70562200  0.30398300  0.99476600  1.0
  O  O17  1  0.30398300  0.70562200  0.99476600  1.0
