# generated using pymatgen
data_TiNi4GeO8
_symmetry_space_group_name_H-M   'P 1'
_cell_length_a   5.91560018
_cell_length_b   5.91560018
_cell_length_c   5.91560018
_cell_angle_alpha   60.00000000
_cell_angle_beta   60.00000000
_cell_angle_gamma   60.00000000
_symmetry_Int_Tables_number   1
_chemical_formula_structural   TiNi4GeO8
_chemical_formula_sum   'Ti1 Ni4 Ge1 O8'
_cell_volume   146.37989882
_cell_formula_units_Z   1
loop_
 _symmetry_equiv_pos_site_id
 _symmetry_equiv_pos_as_xyz
  1  'x, y, z'
loop_
 _atom_site_type_symbol
 _atom_site_label
 _atom_site_symmetry_multiplicity
 _atom_site_fract_x
 _atom_site_fract_y
 _atom_site_fract_z
 _atom_site_occupancy
  Ti  Ti0  1  0.00000000  0.00000000  0.00000000  1.0
  Ni  Ni1  1  0.37423300  0.87730300  0.37423200  1.0
  Ni  Ni2  1  0.37423300  0.37423200  0.37423200  1.0
  Ni  Ni3  1  0.37423300  0.37423200  0.87730300  1.0
  Ni  Ni4  1  0.87730400  0.37423200  0.37423200  1.0
  Ge  Ge5  1  0.75000000  0.75000000  0.75000000  1.0
  O  O6  1  0.12738400  0.61784600  0.12738500  1.0
  O  O7  1  0.12738400  0.12738500  0.12738500  1.0
  O  O8  1  0.12738400  0.12738500  0.61784600  1.0
  O  O9  1  0.61784500  0.12738500  0.12738500  1.0
  O  O10  1  0.62514200  0.12457200  0.62514300  1.0
  O  O11  1  0.62514200  0.62514300  0.62514300  1.0
  O  O12  1  0.62514200  0.62514300  0.12457200  1.0
  O  O13  1  0.12457100  0.62514300  0.62514300  1.0
