# generated using pymatgen
data_TiSnO4
_symmetry_space_group_name_H-M   'P 1'
_cell_length_a   5.68486842
_cell_length_b   5.68486842
_cell_length_c   7.44589438
_cell_angle_alpha   71.94077660
_cell_angle_beta   71.94077660
_cell_angle_gamma   72.14343521
_symmetry_Int_Tables_number   1
_chemical_formula_structural   TiSnO4
_chemical_formula_sum   'Ti3 Sn3 O12'
_cell_volume   211.52711544
_cell_formula_units_Z   3
loop_
 _symmetry_equiv_pos_site_id
 _symmetry_equiv_pos_as_xyz
  1  'x, y, z'
loop_
 _atom_site_type_symbol
 _atom_site_label
 _atom_site_symmetry_multiplicity
 _atom_site_fract_x
 _atom_site_fract_y
 _atom_site_fract_z
 _atom_site_occupancy
  Ti  Ti0  1  0.32397200  0.32397200  0.68574300  1.0
  Ti  Ti1  1  0.34503000  0.34503000  0.18072300  1.0
  Ti  Ti2  1  0.00517000  0.00517000  0.99970000  1.0
  Sn  Sn3  1  0.66314100  0.66314100  0.83379100  1.0
  Sn  Sn4  1  0.66783200  0.66783200  0.32892800  1.0
  Sn  Sn5  1  0.00139000  0.00139000  0.49822400  1.0
  O  O6  1  0.98383000  0.36661000  0.32269700  1.0
  O  O7  1  0.62657100  0.03347800  0.66096700  1.0
  O  O8  1  0.90631600  0.90631600  0.28468700  1.0
  O  O9  1  0.55279400  0.55279400  0.63302600  1.0
  O  O10  1  0.22905200  0.22905200  0.95593000  1.0
  O  O11  1  0.10055500  0.10055500  0.71109400  1.0
  O  O12  1  0.42861200  0.42861200  0.37190800  1.0
  O  O13  1  0.77970700  0.77970700  0.02577300  1.0
  O  O14  1  0.03347800  0.62657100  0.66096700  1.0
  O  O15  1  0.69070800  0.29523100  0.01157100  1.0
  O  O16  1  0.36661000  0.98383000  0.32269700  1.0
  O  O17  1  0.29523100  0.69070800  0.01157100  1.0
