# generated using pymatgen
data_TiZnSiO5
_symmetry_space_group_name_H-M   'P 1'
_cell_length_a   5.44768082
_cell_length_b   5.44837300
_cell_length_c   7.38560699
_cell_angle_alpha   107.08822095
_cell_angle_beta   106.76176667
_cell_angle_gamma   96.98675162
_symmetry_Int_Tables_number   1
_chemical_formula_structural   TiZnSiO5
_chemical_formula_sum   'Ti2 Zn2 Si2 O10'
_cell_volume   195.46462580
_cell_formula_units_Z   2
loop_
 _symmetry_equiv_pos_site_id
 _symmetry_equiv_pos_as_xyz
  1  'x, y, z'
loop_
 _atom_site_type_symbol
 _atom_site_label
 _atom_site_symmetry_multiplicity
 _atom_site_fract_x
 _atom_site_fract_y
 _atom_site_fract_z
 _atom_site_occupancy
  Ti  Ti0  1  0.50532200  0.99089800  0.49104800  1.0
  Ti  Ti1  1  0.49127100  0.00845800  0.99023500  1.0
  Zn  Zn2  1  0.08489300  0.17766800  0.64478200  1.0
  Zn  Zn3  1  0.66334600  0.58313000  0.13725300  1.0
  Si  Si4  1  0.86644500  0.67625400  0.76787400  1.0
  Si  Si5  1  0.17206600  0.36456100  0.27278300  1.0
  O  O6  1  0.69608500  0.73893200  0.92208500  1.0
  O  O7  1  0.81350100  0.86771100  0.63077200  1.0
  O  O8  1  0.35509800  0.30804500  0.12818000  1.0
  O  O9  1  0.22584200  0.18269500  0.41774300  1.0
  O  O10  1  0.26866900  0.67486700  0.41711000  1.0
  O  O11  1  0.85836400  0.30687900  0.14244700  1.0
  O  O12  1  0.79734100  0.36296400  0.63353500  1.0
  O  O13  1  0.18077400  0.75677700  0.90180100  1.0
  O  O14  1  0.59315400  0.92417800  0.26455800  1.0
  O  O15  1  0.42881300  0.11144600  0.77082100  1.0
