# generated using pymatgen
data_Tl(V3S4)2
_symmetry_space_group_name_H-M   'P 1'
_cell_length_a   3.23942200
_cell_length_b   9.23534000
_cell_length_c   9.23533995
_cell_angle_alpha   120.00000017
_cell_angle_beta   90.00000000
_cell_angle_gamma   90.00000000
_symmetry_Int_Tables_number   1
_chemical_formula_structural   Tl(V3S4)2
_chemical_formula_sum   'Tl1 V6 S8'
_cell_volume   239.27864081
_cell_formula_units_Z   1
loop_
 _symmetry_equiv_pos_site_id
 _symmetry_equiv_pos_as_xyz
  1  'x, y, z'
loop_
 _atom_site_type_symbol
 _atom_site_label
 _atom_site_symmetry_multiplicity
 _atom_site_fract_x
 _atom_site_fract_y
 _atom_site_fract_z
 _atom_site_occupancy
  Tl  Tl0  1  0.50000000  0.00000000  0.00000000  1.0
  V  V1  1  0.74814100  0.88413500  0.51025600  1.0
  V  V2  1  0.74814100  0.48974500  0.37388000  1.0
  V  V3  1  0.74814100  0.62612100  0.11586600  1.0
  V  V4  1  0.25185900  0.11586500  0.48974400  1.0
  V  V5  1  0.25185900  0.51025500  0.62612000  1.0
  V  V6  1  0.25185900  0.37387900  0.88413400  1.0
  S  S7  1  0.75115200  0.33333333  0.66666667  1.0
  S  S8  1  0.24884800  0.66666667  0.33333333  1.0
  S  S9  1  0.75346400  0.70340000  0.65116400  1.0
  S  S10  1  0.75346400  0.34883600  0.05223600  1.0
  S  S11  1  0.75346400  0.94776400  0.29660000  1.0
  S  S12  1  0.24653600  0.29660000  0.34883600  1.0
  S  S13  1  0.24653600  0.65116400  0.94776400  1.0
  S  S14  1  0.24653600  0.05223600  0.70340000  1.0
