# generated using pymatgen
data_Tl2NiF4
_symmetry_space_group_name_H-M   'P 1'
_cell_length_a   4.12123800
_cell_length_b   4.12123800
_cell_length_c   7.60351958
_cell_angle_alpha   105.72429169
_cell_angle_beta   105.72429170
_cell_angle_gamma   90.00000000
_symmetry_Int_Tables_number   1
_chemical_formula_structural   Tl2NiF4
_chemical_formula_sum   'Tl2 Ni1 F4'
_cell_volume   119.28126783
_cell_formula_units_Z   1
loop_
 _symmetry_equiv_pos_site_id
 _symmetry_equiv_pos_as_xyz
  1  'x, y, z'
loop_
 _atom_site_type_symbol
 _atom_site_label
 _atom_site_symmetry_multiplicity
 _atom_site_fract_x
 _atom_site_fract_y
 _atom_site_fract_z
 _atom_site_occupancy
  Tl  Tl0  1  0.34956300  0.34956300  0.69912600  1.0
  Tl  Tl1  1  0.65043700  0.65043700  0.30087400  1.0
  Ni  Ni2  1  0.00000000  0.00000000  0.00000000  1.0
  F  F3  1  0.14406700  0.14406700  0.28813400  1.0
  F  F4  1  0.85593300  0.85593300  0.71186600  1.0
  F  F5  1  0.50000000  1.00000000  1.00000000  1.0
  F  F6  1  0.00000000  0.50000000  0.00000000  1.0
