# generated using pymatgen
data_Tl3AsS3
_symmetry_space_group_name_H-M   'P 1'
_cell_length_a   6.19065137
_cell_length_b   6.19065137
_cell_length_c   6.19065185
_cell_angle_alpha   105.70154994
_cell_angle_beta   105.70154994
_cell_angle_gamma   105.70155061
_symmetry_Int_Tables_number   1
_chemical_formula_structural   Tl3AsS3
_chemical_formula_sum   'Tl3 As1 S3'
_cell_volume   204.18019174
_cell_formula_units_Z   1
loop_
 _symmetry_equiv_pos_site_id
 _symmetry_equiv_pos_as_xyz
  1  'x, y, z'
loop_
 _atom_site_type_symbol
 _atom_site_label
 _atom_site_symmetry_multiplicity
 _atom_site_fract_x
 _atom_site_fract_y
 _atom_site_fract_z
 _atom_site_occupancy
  Tl  Tl0  1  0.38636900  0.98891100  0.98891100  1.0
  Tl  Tl1  1  0.98891100  0.98891100  0.38636900  1.0
  Tl  Tl2  1  0.98891100  0.38636900  0.98891100  1.0
  As  As3  1  0.56346700  0.56346700  0.56346700  1.0
  S  S4  1  0.94017100  0.57858600  0.57858600  1.0
  S  S5  1  0.57858600  0.57858600  0.94017100  1.0
  S  S6  1  0.57858600  0.94017100  0.57858600  1.0
