# generated using pymatgen
data_Tl3AsO4
_symmetry_space_group_name_H-M   'P 1'
_cell_length_a   5.36966500
_cell_length_b   9.13193200
_cell_length_c   9.13193192
_cell_angle_alpha   120.00000030
_cell_angle_beta   90.00000000
_cell_angle_gamma   90.00000000
_symmetry_Int_Tables_number   1
_chemical_formula_structural   Tl3AsO4
_chemical_formula_sum   'Tl6 As2 O8'
_cell_volume   387.79584946
_cell_formula_units_Z   2
loop_
 _symmetry_equiv_pos_site_id
 _symmetry_equiv_pos_as_xyz
  1  'x, y, z'
loop_
 _atom_site_type_symbol
 _atom_site_label
 _atom_site_symmetry_multiplicity
 _atom_site_fract_x
 _atom_site_fract_y
 _atom_site_fract_z
 _atom_site_occupancy
  Tl  Tl0  1  0.00020400  0.28731300  0.37505900  1.0
  Tl  Tl1  1  0.00020400  0.08774600  0.71268700  1.0
  Tl  Tl2  1  0.50020400  0.37505900  0.08774600  1.0
  Tl  Tl3  1  0.50020400  0.71268700  0.62494100  1.0
  Tl  Tl4  1  0.50020400  0.91225400  0.28731300  1.0
  Tl  Tl5  1  0.00020400  0.62494100  0.91225400  1.0
  As  As6  1  0.01446800  0.66666667  0.33333333  1.0
  As  As7  1  0.51446800  0.33333333  0.66666667  1.0
  O  O8  1  0.41547700  0.39844000  0.52827300  1.0
  O  O9  1  0.91547700  0.52827200  0.12983200  1.0
  O  O10  1  0.91547700  0.87016700  0.39843900  1.0
  O  O11  1  0.41547700  0.12983300  0.60156100  1.0
  O  O12  1  0.34038900  0.66666667  0.33333333  1.0
  O  O13  1  0.91547700  0.60156000  0.47172700  1.0
  O  O14  1  0.84038900  0.33333333  0.66666667  1.0
  O  O15  1  0.41547700  0.47172800  0.87016800  1.0
