# generated using pymatgen
data_TlBiTe2
_symmetry_space_group_name_H-M   'P 1'
_cell_length_a   4.59282338
_cell_length_b   4.59282338
_cell_length_c   8.43262933
_cell_angle_alpha   74.19736469
_cell_angle_beta   74.19736469
_cell_angle_gamma   60.00000893
_symmetry_Int_Tables_number   1
_chemical_formula_structural   TlBiTe2
_chemical_formula_sum   'Tl1 Bi1 Te2'
_cell_volume   146.23262593
_cell_formula_units_Z   1
loop_
 _symmetry_equiv_pos_site_id
 _symmetry_equiv_pos_as_xyz
  1  'x, y, z'
loop_
 _atom_site_type_symbol
 _atom_site_label
 _atom_site_symmetry_multiplicity
 _atom_site_fract_x
 _atom_site_fract_y
 _atom_site_fract_z
 _atom_site_occupancy
  Tl  Tl0  1  0.50000000  0.50000000  0.50000000  1.0
  Bi  Bi1  1  0.00000000  0.00000000  0.00000000  1.0
  Te  Te2  1  0.73991700  0.73991700  0.78024900  1.0
  Te  Te3  1  0.26008300  0.26008300  0.21975100  1.0
