# generated using pymatgen
data_TlCl2
_symmetry_space_group_name_H-M   'P 1'
_cell_length_a   7.16486200
_cell_length_b   7.16486200
_cell_length_c   9.44554156
_cell_angle_alpha   112.28860619
_cell_angle_beta   112.28860621
_cell_angle_gamma   89.99999999
_symmetry_Int_Tables_number   1
_chemical_formula_structural   TlCl2
_chemical_formula_sum   'Tl4 Cl8'
_cell_volume   409.23766286
_cell_formula_units_Z   4
loop_
 _symmetry_equiv_pos_site_id
 _symmetry_equiv_pos_as_xyz
  1  'x, y, z'
loop_
 _atom_site_type_symbol
 _atom_site_label
 _atom_site_symmetry_multiplicity
 _atom_site_fract_x
 _atom_site_fract_y
 _atom_site_fract_z
 _atom_site_occupancy
  Tl  Tl0  1  0.25000000  0.75000000  0.50000000  1.0
  Tl  Tl1  1  0.50000000  0.50000000  0.00000000  1.0
  Tl  Tl2  1  0.75000000  0.25000000  0.50000000  1.0
  Tl  Tl3  1  0.00000000  0.00000000  0.00000000  1.0
  Cl  Cl4  1  0.82148800  0.91980700  0.33016000  1.0
  Cl  Cl5  1  0.16035300  0.07148800  0.83016100  1.0
  Cl  Cl6  1  0.66980700  0.75867200  0.83016000  1.0
  Cl  Cl7  1  0.50867300  0.41035400  0.33016100  1.0
  Cl  Cl8  1  0.24132700  0.83964600  0.16983900  1.0
  Cl  Cl9  1  0.08019300  0.49132800  0.66984000  1.0
  Cl  Cl10  1  0.58964700  0.17851200  0.66983900  1.0
  Cl  Cl11  1  0.92851200  0.33019300  0.16984000  1.0
