# generated using pymatgen
data_TlMo6(SeS)4
_symmetry_space_group_name_H-M   'P 1'
_cell_length_a   6.79878600
_cell_length_b   6.82889779
_cell_length_c   6.84828783
_cell_angle_alpha   91.38092628
_cell_angle_beta   89.66230348
_cell_angle_gamma   89.94824088
_symmetry_Int_Tables_number   1
_chemical_formula_structural   TlMo6(SeS)4
_chemical_formula_sum   'Tl1 Mo6 Se4 S4'
_cell_volume   317.85573887
_cell_formula_units_Z   1
loop_
 _symmetry_equiv_pos_site_id
 _symmetry_equiv_pos_as_xyz
  1  'x, y, z'
loop_
 _atom_site_type_symbol
 _atom_site_label
 _atom_site_symmetry_multiplicity
 _atom_site_fract_x
 _atom_site_fract_y
 _atom_site_fract_z
 _atom_site_occupancy
  Tl  Tl0  1  0.99230900  0.99668400  0.99897800  1.0
  Mo  Mo1  1  0.44298000  0.23544200  0.58608000  1.0
  Mo  Mo2  1  0.58750100  0.56162600  0.75458900  1.0
  Mo  Mo3  1  0.76391200  0.41371400  0.43828700  1.0
  Mo  Mo4  1  0.56307700  0.76880400  0.41541300  1.0
  Mo  Mo5  1  0.41909500  0.43965900  0.24323200  1.0
  Mo  Mo6  1  0.23200300  0.58694600  0.55643800  1.0
  Se  Se7  1  0.25587200  0.39839600  0.88014400  1.0
  Se  Se8  1  0.12145600  0.25269100  0.39080800  1.0
  Se  Se9  1  0.38806600  0.88406900  0.74345900  1.0
  Se  Se10  1  0.74696300  0.60874500  0.11852700  1.0
  S  S11  1  0.75351300  0.24780800  0.74375700  1.0
  S  S12  1  0.25446000  0.75640000  0.25426300  1.0
  S  S13  1  0.87429000  0.72375700  0.59666700  1.0
  S  S14  1  0.60450600  0.12526000  0.27935700  1.0
