# generated using pymatgen
data_Tm2FeSi2
_symmetry_space_group_name_H-M   'P 1'
_cell_length_a   4.10659600
_cell_length_b   5.54260030
_cell_length_c   8.83978273
_cell_angle_alpha   82.57390117
_cell_angle_beta   76.56870273
_cell_angle_gamma   68.25616308
_symmetry_Int_Tables_number   1
_chemical_formula_structural   Tm2FeSi2
_chemical_formula_sum   'Tm4 Fe2 Si4'
_cell_volume   181.56897138
_cell_formula_units_Z   2
loop_
 _symmetry_equiv_pos_site_id
 _symmetry_equiv_pos_as_xyz
  1  'x, y, z'
loop_
 _atom_site_type_symbol
 _atom_site_label
 _atom_site_symmetry_multiplicity
 _atom_site_fract_x
 _atom_site_fract_y
 _atom_site_fract_z
 _atom_site_occupancy
  Tm  Tm0  1  0.99941600  0.67261700  0.32855100  1.0
  Tm  Tm1  1  0.00058400  0.32738300  0.67144900  1.0
  Tm  Tm2  1  0.81209300  0.26680200  0.10901200  1.0
  Tm  Tm3  1  0.18790700  0.73319800  0.89098800  1.0
  Fe  Fe4  1  0.72917000  0.91697400  0.62468600  1.0
  Fe  Fe5  1  0.27083000  0.08302600  0.37531400  1.0
  Si  Si6  1  0.65175200  0.26023900  0.43625700  1.0
  Si  Si7  1  0.34824800  0.73976100  0.56374300  1.0
  Si  Si8  1  0.50245100  0.86903000  0.12606800  1.0
  Si  Si9  1  0.49754900  0.13097000  0.87393200  1.0
