# generated using pymatgen
data_Tm2NiRuO6
_symmetry_space_group_name_H-M   'P 1'
_cell_length_a   5.23522200
_cell_length_b   5.67565000
_cell_length_c   7.63346745
_cell_angle_alpha   90.00000000
_cell_angle_beta   89.52037711
_cell_angle_gamma   90.00000000
_symmetry_Int_Tables_number   1
_chemical_formula_structural   Tm2NiRuO6
_chemical_formula_sum   'Tm4 Ni2 Ru2 O12'
_cell_volume   226.80746805
_cell_formula_units_Z   2
loop_
 _symmetry_equiv_pos_site_id
 _symmetry_equiv_pos_as_xyz
  1  'x, y, z'
loop_
 _atom_site_type_symbol
 _atom_site_label
 _atom_site_symmetry_multiplicity
 _atom_site_fract_x
 _atom_site_fract_y
 _atom_site_fract_z
 _atom_site_occupancy
  Tm  Tm0  1  0.47321500  0.07921800  0.24739400  1.0
  Tm  Tm1  1  0.52678500  0.92078200  0.75260600  1.0
  Tm  Tm2  1  0.02678500  0.57921800  0.25260600  1.0
  Tm  Tm3  1  0.97321500  0.42078200  0.74739400  1.0
  Ni  Ni4  1  0.50000000  0.50000000  0.00000000  1.0
  Ni  Ni5  1  0.00000000  1.00000000  0.50000000  1.0
  Ru  Ru6  1  0.50000000  0.50000000  0.50000000  1.0
  Ru  Ru7  1  0.00000000  0.00000000  0.00000000  1.0
  O  O8  1  0.63206900  0.44807200  0.25324800  1.0
  O  O9  1  0.36793100  0.55192800  0.74675200  1.0
  O  O10  1  0.86793100  0.94807200  0.24675200  1.0
  O  O11  1  0.13206900  0.05192800  0.75324800  1.0
  O  O12  1  0.31990900  0.80324000  0.42994000  1.0
  O  O13  1  0.68009100  0.19676000  0.57006000  1.0
  O  O14  1  0.18009100  0.30324000  0.07006000  1.0
  O  O15  1  0.81990900  0.69676000  0.92994000  1.0
  O  O16  1  0.18655000  0.31280700  0.44016900  1.0
  O  O17  1  0.81345000  0.68719300  0.55983100  1.0
  O  O18  1  0.31345000  0.81280700  0.05983100  1.0
  O  O19  1  0.68655000  0.18719300  0.94016900  1.0
