# generated using pymatgen
data_Tm2SeO2
_symmetry_space_group_name_H-M   'P 1'
_cell_length_a   3.77876800
_cell_length_b   3.77876800
_cell_length_c   6.54944880
_cell_angle_alpha   106.76696866
_cell_angle_beta   106.76696867
_cell_angle_gamma   89.99999999
_symmetry_Int_Tables_number   1
_chemical_formula_structural   Tm2SeO2
_chemical_formula_sum   'Tm2 Se1 O2'
_cell_volume   85.38337506
_cell_formula_units_Z   1
loop_
 _symmetry_equiv_pos_site_id
 _symmetry_equiv_pos_as_xyz
  1  'x, y, z'
loop_
 _atom_site_type_symbol
 _atom_site_label
 _atom_site_symmetry_multiplicity
 _atom_site_fract_x
 _atom_site_fract_y
 _atom_site_fract_z
 _atom_site_occupancy
  Tm  Tm0  1  0.65790600  0.65790600  0.31581200  1.0
  Tm  Tm1  1  0.34209400  0.34209400  0.68418800  1.0
  Se  Se2  1  0.00000000  0.00000000  0.00000000  1.0
  O  O3  1  0.25000000  0.75000000  0.50000000  1.0
  O  O4  1  0.75000000  0.25000000  0.50000000  1.0
