# generated using pymatgen
data_Tm3(CuGe)4
_symmetry_space_group_name_H-M   'P 1'
_cell_length_a   4.15007800
_cell_length_b   6.62552600
_cell_length_c   7.91855697
_cell_angle_alpha   114.73073622
_cell_angle_beta   105.19159538
_cell_angle_gamma   90.00000000
_symmetry_Int_Tables_number   1
_chemical_formula_structural   Tm3(CuGe)4
_chemical_formula_sum   'Tm3 Cu4 Ge4'
_cell_volume   189.35325620
_cell_formula_units_Z   1
loop_
 _symmetry_equiv_pos_site_id
 _symmetry_equiv_pos_as_xyz
  1  'x, y, z'
loop_
 _atom_site_type_symbol
 _atom_site_label
 _atom_site_symmetry_multiplicity
 _atom_site_fract_x
 _atom_site_fract_y
 _atom_site_fract_z
 _atom_site_occupancy
  Tm  Tm0  1  0.87064500  0.87064500  0.74129000  1.0
  Tm  Tm1  1  0.12935500  0.12935500  0.25871000  1.0
  Tm  Tm2  1  0.00000000  0.50000000  0.00000000  1.0
  Cu  Cu3  1  0.33012600  0.52142800  0.66025300  1.0
  Cu  Cu4  1  0.33012700  0.13882500  0.66025400  1.0
  Cu  Cu5  1  0.66987300  0.86117500  0.33974600  1.0
  Cu  Cu6  1  0.66987400  0.47857200  0.33974700  1.0
  Ge  Ge7  1  0.21655200  0.71655200  0.43310400  1.0
  Ge  Ge8  1  0.78344800  0.28344800  0.56689600  1.0
  Ge  Ge9  1  0.50000000  0.80736000  1.00000000  1.0
  Ge  Ge10  1  0.50000000  0.19264000  0.00000000  1.0
