# generated using pymatgen
data_Tm5SbPd2
_symmetry_space_group_name_H-M   'P 1'
_cell_length_a   7.62930200
_cell_length_b   8.69128114
_cell_length_c   7.62930200
_cell_angle_alpha   116.03406789
_cell_angle_beta   90.00000000
_cell_angle_gamma   116.03406789
_symmetry_Int_Tables_number   1
_chemical_formula_structural   Tm5SbPd2
_chemical_formula_sum   'Tm10 Sb2 Pd4'
_cell_volume   396.63722972
_cell_formula_units_Z   2
loop_
 _symmetry_equiv_pos_site_id
 _symmetry_equiv_pos_as_xyz
  1  'x, y, z'
loop_
 _atom_site_type_symbol
 _atom_site_label
 _atom_site_symmetry_multiplicity
 _atom_site_fract_x
 _atom_site_fract_y
 _atom_site_fract_z
 _atom_site_occupancy
  Tm  Tm0  1  0.00000000  0.00000000  0.00000000  1.0
  Tm  Tm1  1  0.50000000  0.00000000  0.50000000  1.0
  Tm  Tm2  1  0.20031300  0.71530000  0.01498700  1.0
  Tm  Tm3  1  0.79968700  0.28470000  0.98501300  1.0
  Tm  Tm4  1  0.51498700  0.71530000  0.70031300  1.0
  Tm  Tm5  1  0.70031300  0.71530000  0.20031300  1.0
  Tm  Tm6  1  0.98501300  0.28470000  0.48501300  1.0
  Tm  Tm7  1  0.48501300  0.28470000  0.29968700  1.0
  Tm  Tm8  1  0.29968700  0.28470000  0.79968700  1.0
  Tm  Tm9  1  0.01498700  0.71530000  0.51498700  1.0
  Sb  Sb10  1  0.75000000  0.50000000  0.75000000  1.0
  Sb  Sb11  1  0.25000000  0.50000000  0.25000000  1.0
  Pd  Pd12  1  0.86388400  1.00000000  0.63611600  1.0
  Pd  Pd13  1  0.13611600  0.00000000  0.36388400  1.0
  Pd  Pd14  1  0.36388400  0.00000000  0.86388400  1.0
  Pd  Pd15  1  0.63611600  0.00000000  0.13611600  1.0
