# generated using pymatgen
data_Tm5Tl3
_symmetry_space_group_name_H-M   'P 1'
_cell_length_a   6.60868500
_cell_length_b   8.89000600
_cell_length_c   8.89000510
_cell_angle_alpha   120.00000334
_cell_angle_beta   90.00000000
_cell_angle_gamma   90.00000000
_symmetry_Int_Tables_number   1
_chemical_formula_structural   Tm5Tl3
_chemical_formula_sum   'Tm10 Tl6'
_cell_volume   452.32410556
_cell_formula_units_Z   2
loop_
 _symmetry_equiv_pos_site_id
 _symmetry_equiv_pos_as_xyz
  1  'x, y, z'
loop_
 _atom_site_type_symbol
 _atom_site_label
 _atom_site_symmetry_multiplicity
 _atom_site_fract_x
 _atom_site_fract_y
 _atom_site_fract_z
 _atom_site_occupancy
  Tm  Tm0  1  1.00000000  0.33333333  0.66666667  1.0
  Tm  Tm1  1  1.00000000  0.66666667  0.33333333  1.0
  Tm  Tm2  1  0.50000000  0.66666667  0.33333333  1.0
  Tm  Tm3  1  0.50000000  0.33333333  0.66666667  1.0
  Tm  Tm4  1  0.25000000  0.23525500  1.00000000  1.0
  Tm  Tm5  1  0.25000000  0.76474500  0.76474500  1.0
  Tm  Tm6  1  0.25000000  0.00000000  0.23525500  1.0
  Tm  Tm7  1  0.75000000  0.76474500  1.00000000  1.0
  Tm  Tm8  1  0.75000000  0.23525500  0.23525500  1.0
  Tm  Tm9  1  0.75000000  0.00000000  0.76474500  1.0
  Tl  Tl10  1  0.25000000  0.59688200  1.00000000  1.0
  Tl  Tl11  1  0.25000000  0.40311800  0.40311800  1.0
  Tl  Tl12  1  0.25000000  0.00000000  0.59688200  1.0
  Tl  Tl13  1  0.75000000  0.40311800  0.00000000  1.0
  Tl  Tl14  1  0.75000000  0.59688200  0.59688200  1.0
  Tl  Tl15  1  0.75000000  0.00000000  0.40311800  1.0
