# generated using pymatgen
data_TmGa3
_symmetry_space_group_name_H-M   'P 1'
_cell_length_a   4.60770000
_cell_length_b   6.18042200
_cell_length_c   6.18042247
_cell_angle_alpha   119.99999749
_cell_angle_beta   90.00000000
_cell_angle_gamma   90.00000000
_symmetry_Int_Tables_number   1
_chemical_formula_structural   TmGa3
_chemical_formula_sum   'Tm2 Ga6'
_cell_volume   152.42321945
_cell_formula_units_Z   2
loop_
 _symmetry_equiv_pos_site_id
 _symmetry_equiv_pos_as_xyz
  1  'x, y, z'
loop_
 _atom_site_type_symbol
 _atom_site_label
 _atom_site_symmetry_multiplicity
 _atom_site_fract_x
 _atom_site_fract_y
 _atom_site_fract_z
 _atom_site_occupancy
  Tm  Tm0  1  0.25000000  0.66666667  0.33333333  1.0
  Tm  Tm1  1  0.75000000  0.33333333  0.66666667  1.0
  Ga  Ga2  1  0.75000000  0.84849500  0.15150500  1.0
  Ga  Ga3  1  0.75000000  0.30301000  0.15150500  1.0
  Ga  Ga4  1  0.75000000  0.84849500  0.69699000  1.0
  Ga  Ga5  1  0.25000000  0.15150500  0.84849500  1.0
  Ga  Ga6  1  0.25000000  0.69699000  0.84849500  1.0
  Ga  Ga7  1  0.25000000  0.15150500  0.30301000  1.0
