# generated using pymatgen
data_TmGaAg
_symmetry_space_group_name_H-M   'P 1'
_cell_length_a   4.54446600
_cell_length_b   5.70838976
_cell_length_c   5.73967072
_cell_angle_alpha   76.15284475
_cell_angle_beta   66.67899912
_cell_angle_gamma   66.54357643
_symmetry_Int_Tables_number   1
_chemical_formula_structural   TmGaAg
_chemical_formula_sum   'Tm2 Ga2 Ag2'
_cell_volume   124.84043062
_cell_formula_units_Z   2
loop_
 _symmetry_equiv_pos_site_id
 _symmetry_equiv_pos_as_xyz
  1  'x, y, z'
loop_
 _atom_site_type_symbol
 _atom_site_label
 _atom_site_symmetry_multiplicity
 _atom_site_fract_x
 _atom_site_fract_y
 _atom_site_fract_z
 _atom_site_occupancy
  Tm  Tm0  1  0.46439000  0.78066100  0.29055900  1.0
  Tm  Tm1  1  0.53561000  0.21933900  0.70944100  1.0
  Ga  Ga2  1  0.15948100  0.79884300  0.88219500  1.0
  Ga  Ga3  1  0.84051900  0.20115700  0.11780500  1.0
  Ag  Ag4  1  0.82585800  0.62677700  0.72150700  1.0
  Ag  Ag5  1  0.17414200  0.37322300  0.27849300  1.0
