# generated using pymatgen
data_U2(PdAu)5
_symmetry_space_group_name_H-M   'P 1'
_cell_length_a   5.41347400
_cell_length_b   5.43585877
_cell_length_c   9.41404868
_cell_angle_alpha   106.52716263
_cell_angle_beta   90.00000000
_cell_angle_gamma   119.86387146
_symmetry_Int_Tables_number   1
_chemical_formula_structural   U2(PdAu)5
_chemical_formula_sum   'U2 Pd5 Au5'
_cell_volume   226.94703777
_cell_formula_units_Z   1
loop_
 _symmetry_equiv_pos_site_id
 _symmetry_equiv_pos_as_xyz
  1  'x, y, z'
loop_
 _atom_site_type_symbol
 _atom_site_label
 _atom_site_symmetry_multiplicity
 _atom_site_fract_x
 _atom_site_fract_y
 _atom_site_fract_z
 _atom_site_occupancy
  U  U0  1  0.99862400  0.99724800  0.00156500  1.0
  U  U1  1  0.49800900  0.99601800  0.49956400  1.0
  Pd  Pd2  1  0.68763100  0.37526200  0.06222200  1.0
  Pd  Pd3  1  0.43802800  0.87605600  0.81285800  1.0
  Pd  Pd4  1  0.93724100  0.87448200  0.31204300  1.0
  Pd  Pd5  1  0.87539900  0.75079800  0.62458900  1.0
  Pd  Pd6  1  0.37575200  0.75150400  0.12564500  1.0
  Au  Au7  1  0.93802600  0.37599600  0.81396300  1.0
  Au  Au8  1  0.43925200  0.37540600  0.31022900  1.0
  Au  Au9  1  0.43797000  0.37599600  0.81396300  1.0
  Au  Au10  1  0.93615400  0.37540600  0.31022900  1.0
  Au  Au11  1  0.18791400  0.37582800  0.56312900  1.0
