# generated using pymatgen
data_U2FeS5
_symmetry_space_group_name_H-M   'P 1'
_cell_length_a   5.99064400
_cell_length_b   6.94821931
_cell_length_c   7.84221069
_cell_angle_alpha   96.87810151
_cell_angle_beta   112.45444057
_cell_angle_gamma   90.00000000
_symmetry_Int_Tables_number   1
_chemical_formula_structural   U2FeS5
_chemical_formula_sum   'U4 Fe2 S10'
_cell_volume   299.13455644
_cell_formula_units_Z   2
loop_
 _symmetry_equiv_pos_site_id
 _symmetry_equiv_pos_as_xyz
  1  'x, y, z'
loop_
 _atom_site_type_symbol
 _atom_site_label
 _atom_site_symmetry_multiplicity
 _atom_site_fract_x
 _atom_site_fract_y
 _atom_site_fract_z
 _atom_site_occupancy
  U  U0  1  0.90496300  0.58529500  0.21868600  1.0
  U  U1  1  0.68627700  0.91470500  0.78131400  1.0
  U  U2  1  0.31372300  0.08529500  0.21868600  1.0
  U  U3  1  0.09503700  0.41470500  0.78131400  1.0
  Fe  Fe4  1  0.50000000  0.50000000  0.50000000  1.0
  Fe  Fe5  1  0.00000000  0.00000000  0.50000000  1.0
  S  S6  1  0.13472500  0.30861500  0.44271000  1.0
  S  S7  1  0.69201500  0.19138500  0.55729000  1.0
  S  S8  1  0.86527500  0.69138500  0.55729000  1.0
  S  S9  1  0.30798500  0.80861500  0.44271000  1.0
  S  S10  1  0.29059500  0.07517000  0.81517500  1.0
  S  S11  1  0.47542000  0.42483000  0.18482500  1.0
  S  S12  1  0.09763700  0.75000000  0.00000000  1.0
  S  S13  1  0.90236300  0.25000000  0.00000000  1.0
  S  S14  1  0.52458000  0.57517000  0.81517500  1.0
  S  S15  1  0.70940500  0.92483000  0.18482500  1.0
