# generated using pymatgen
data_U2Te3
_symmetry_space_group_name_H-M   'P 1'
_cell_length_a   4.29704300
_cell_length_b   11.70933079
_cell_length_c   12.05867481
_cell_angle_alpha   89.95784726
_cell_angle_beta   90.00095504
_cell_angle_gamma   89.99939502
_symmetry_Int_Tables_number   1
_chemical_formula_structural   U2Te3
_chemical_formula_sum   'U8 Te12'
_cell_volume   606.73806283
_cell_formula_units_Z   4
loop_
 _symmetry_equiv_pos_site_id
 _symmetry_equiv_pos_as_xyz
  1  'x, y, z'
loop_
 _atom_site_type_symbol
 _atom_site_label
 _atom_site_symmetry_multiplicity
 _atom_site_fract_x
 _atom_site_fract_y
 _atom_site_fract_z
 _atom_site_occupancy
  U  U0  1  0.75000000  0.31239600  0.98434800  1.0
  U  U1  1  0.74999500  0.50028000  0.30269000  1.0
  U  U2  1  0.75001000  0.18754400  0.48419900  1.0
  U  U3  1  0.25000000  0.99798100  0.19713000  1.0
  U  U4  1  0.74999600  0.99980500  0.80263300  1.0
  U  U5  1  0.24999900  0.81285600  0.51625300  1.0
  U  U6  1  0.25000300  0.50205900  0.69709800  1.0
  U  U7  1  0.25000000  0.68703700  0.01649900  1.0
  Te  Te8  1  0.75000300  0.55837600  0.87902400  1.0
  Te  Te9  1  0.74999900  0.94121300  0.37931300  1.0
  Te  Te10  1  0.25000300  0.70220500  0.27488500  1.0
  Te  Te11  1  0.75000200  0.62438300  0.54620200  1.0
  Te  Te12  1  0.75000100  0.20248400  0.22547400  1.0
  Te  Te13  1  0.75000100  0.87610700  0.04630900  1.0
  Te  Te14  1  0.25000200  0.79789500  0.77435200  1.0
  Te  Te15  1  0.24999900  0.05785700  0.62104400  1.0
  Te  Te16  1  0.24998700  0.37578800  0.45289100  1.0
  Te  Te17  1  0.25000100  0.12438500  0.95294500  1.0
  Te  Te18  1  0.25000400  0.44177500  0.12109900  1.0
  Te  Te19  1  0.74999500  0.29757400  0.72561300  1.0
