# generated using pymatgen
data_U3Si
_symmetry_space_group_name_H-M   'P 1'
_cell_length_a   5.99674000
_cell_length_b   6.01983971
_cell_length_c   5.99674000
_cell_angle_alpha   60.12685466
_cell_angle_beta   90.00000000
_cell_angle_gamma   119.87314534
_symmetry_Int_Tables_number   1
_chemical_formula_structural   U3Si
_chemical_formula_sum   'U6 Si2'
_cell_volume   153.65876416
_cell_formula_units_Z   2
loop_
 _symmetry_equiv_pos_site_id
 _symmetry_equiv_pos_as_xyz
  1  'x, y, z'
loop_
 _atom_site_type_symbol
 _atom_site_label
 _atom_site_symmetry_multiplicity
 _atom_site_fract_x
 _atom_site_fract_y
 _atom_site_fract_z
 _atom_site_occupancy
  U  U0  1  0.72145200  0.44290400  0.27854800  1.0
  U  U1  1  0.27854800  0.55709600  0.72145200  1.0
  U  U2  1  0.22895300  0.00000000  0.77104700  1.0
  U  U3  1  0.77104700  0.00000000  0.22895300  1.0
  U  U4  1  0.22895300  0.00000100  0.22895200  1.0
  U  U5  1  0.77104700  0.99999900  0.77104800  1.0
  Si  Si6  1  0.25000000  0.50000000  0.25000000  1.0
  Si  Si7  1  0.75000000  0.50000000  0.75000000  1.0
