# generated using pymatgen
data_UNb2O7
_symmetry_space_group_name_H-M   'P 1'
_cell_length_a   3.81768200
_cell_length_b   6.54308300
_cell_length_c   10.81807734
_cell_angle_alpha   90.00000000
_cell_angle_beta   100.16300313
_cell_angle_gamma   90.00000000
_symmetry_Int_Tables_number   1
_chemical_formula_structural   UNb2O7
_chemical_formula_sum   'U2 Nb4 O14'
_cell_volume   265.98922757
_cell_formula_units_Z   2
loop_
 _symmetry_equiv_pos_site_id
 _symmetry_equiv_pos_as_xyz
  1  'x, y, z'
loop_
 _atom_site_type_symbol
 _atom_site_label
 _atom_site_symmetry_multiplicity
 _atom_site_fract_x
 _atom_site_fract_y
 _atom_site_fract_z
 _atom_site_occupancy
  U  U0  1  0.14363100  0.25000000  0.28726200  1.0
  U  U1  1  0.85636900  0.75000000  0.71273800  1.0
  Nb  Nb2  1  0.66440400  0.75000000  0.32880800  1.0
  Nb  Nb3  1  0.33559600  0.25000000  0.67119200  1.0
  Nb  Nb4  1  0.02394100  0.75000000  0.04788200  1.0
  Nb  Nb5  1  0.97605900  0.25000000  0.95211800  1.0
  O  O6  1  0.65287000  0.05577400  0.30574000  1.0
  O  O7  1  0.34713000  0.94422600  0.69426000  1.0
  O  O8  1  0.34713000  0.55577400  0.69426000  1.0
  O  O9  1  0.65287000  0.44422600  0.30574000  1.0
  O  O10  1  0.75100500  0.75000000  0.50201000  1.0
  O  O11  1  0.24899500  0.25000000  0.49799000  1.0
  O  O12  1  0.45060500  0.25000000  0.90121000  1.0
  O  O13  1  0.54939500  0.75000000  0.09879000  1.0
  O  O14  1  0.86335900  0.25000000  0.72671800  1.0
  O  O15  1  0.13664100  0.75000000  0.27328200  1.0
  O  O16  1  0.05190700  0.43444100  0.10381400  1.0
  O  O17  1  0.94809300  0.56555900  0.89618600  1.0
  O  O18  1  0.94809300  0.93444100  0.89618600  1.0
  O  O19  1  0.05190700  0.06555900  0.10381400  1.0
