# generated using pymatgen
data_USb3
_symmetry_space_group_name_H-M   'P 1'
_cell_length_a   5.90566900
_cell_length_b   6.34249600
_cell_length_c   6.34249543
_cell_angle_alpha   120.00000298
_cell_angle_beta   90.00000000
_cell_angle_gamma   90.00000000
_symmetry_Int_Tables_number   1
_chemical_formula_structural   USb3
_chemical_formula_sum   'U2 Sb6'
_cell_volume   205.74063966
_cell_formula_units_Z   2
loop_
 _symmetry_equiv_pos_site_id
 _symmetry_equiv_pos_as_xyz
  1  'x, y, z'
loop_
 _atom_site_type_symbol
 _atom_site_label
 _atom_site_symmetry_multiplicity
 _atom_site_fract_x
 _atom_site_fract_y
 _atom_site_fract_z
 _atom_site_occupancy
  U  U0  1  0.25000000  0.66666667  0.33333333  1.0
  U  U1  1  0.75000000  0.33333333  0.66666667  1.0
  Sb  Sb2  1  0.75000000  0.82768500  0.17231400  1.0
  Sb  Sb3  1  0.75000000  0.34462900  0.17231400  1.0
  Sb  Sb4  1  0.75000000  0.82768500  0.65537000  1.0
  Sb  Sb5  1  0.25000000  0.17231500  0.82768600  1.0
  Sb  Sb6  1  0.25000000  0.65537100  0.82768600  1.0
  Sb  Sb7  1  0.25000000  0.17231500  0.34463000  1.0
