# generated using pymatgen
data_V10(SiGe)3
_symmetry_space_group_name_H-M   'P 1'
_cell_length_a   4.81027200
_cell_length_b   7.11608228
_cell_length_c   7.14415546
_cell_angle_alpha   83.46641298
_cell_angle_beta   70.32661765
_cell_angle_gamma   70.24578387
_symmetry_Int_Tables_number   1
_chemical_formula_structural   V10(SiGe)3
_chemical_formula_sum   'V10 Si3 Ge3'
_cell_volume   216.72039909
_cell_formula_units_Z   1
loop_
 _symmetry_equiv_pos_site_id
 _symmetry_equiv_pos_as_xyz
  1  'x, y, z'
loop_
 _atom_site_type_symbol
 _atom_site_label
 _atom_site_symmetry_multiplicity
 _atom_site_fract_x
 _atom_site_fract_y
 _atom_site_fract_z
 _atom_site_occupancy
  V  V0  1  0.76983200  0.65411600  0.80622000  1.0
  V  V1  1  0.22876400  0.35005500  0.19241700  1.0
  V  V2  1  0.72975600  0.19550500  0.34498300  1.0
  V  V3  1  0.26832500  0.80402200  0.65932800  1.0
  V  V4  1  0.92526100  0.80449500  0.34498300  1.0
  V  V5  1  0.07234700  0.19597800  0.65932800  1.0
  V  V6  1  0.42394800  0.34588400  0.80622000  1.0
  V  V7  1  0.57881900  0.64994500  0.19241700  1.0
  V  V8  1  0.24986400  1.00000000  0.99604300  1.0
  V  V9  1  0.75409300  1.00000000  0.99604300  1.0
  Si  Si10  1  0.66566600  1.00000000  0.66866800  1.0
  Si  Si11  1  0.16539100  0.66855900  0.00065900  1.0
  Si  Si12  1  0.83395000  0.33144100  0.00065900  1.0
  Ge  Ge13  1  0.74997100  0.50000000  0.50005800  1.0
  Ge  Ge14  1  0.24997100  0.50000000  0.50005800  1.0
  Ge  Ge15  1  0.33404200  1.00000000  0.33191600  1.0
