# generated using pymatgen
data_V2Bi4O11
_symmetry_space_group_name_H-M   'P 1'
_cell_length_a   5.67028874
_cell_length_b   5.80347656
_cell_length_c   8.18297975
_cell_angle_alpha   109.49086120
_cell_angle_beta   92.53766752
_cell_angle_gamma   88.20221094
_symmetry_Int_Tables_number   1
_chemical_formula_structural   V2Bi4O11
_chemical_formula_sum   'V2 Bi4 O11'
_cell_volume   253.56095762
_cell_formula_units_Z   1
loop_
 _symmetry_equiv_pos_site_id
 _symmetry_equiv_pos_as_xyz
  1  'x, y, z'
loop_
 _atom_site_type_symbol
 _atom_site_label
 _atom_site_symmetry_multiplicity
 _atom_site_fract_x
 _atom_site_fract_y
 _atom_site_fract_z
 _atom_site_occupancy
  V  V0  1  0.52782900  0.49131100  0.99695200  1.0
  V  V1  1  0.96479900  0.05244200  0.97453700  1.0
  Bi  Bi2  1  0.01394700  0.36582100  0.63418100  1.0
  Bi  Bi3  1  0.97293100  0.73554300  0.33831200  1.0
  Bi  Bi4  1  0.48099000  0.80592200  0.65702700  1.0
  Bi  Bi5  1  0.46669500  0.15112100  0.31127700  1.0
  O  O6  1  0.24537500  0.51315300  0.47299100  1.0
  O  O7  1  0.76670300  0.05715800  0.49125300  1.0
  O  O8  1  0.25128000  0.03198800  0.48959300  1.0
  O  O9  1  0.75981700  0.54515200  0.48932100  1.0
  O  O10  1  0.33143900  0.29654900  0.02318700  1.0
  O  O11  1  0.82571600  0.35712900  0.98934400  1.0
  O  O12  1  0.09478000  0.01350100  0.16282700  1.0
  O  O13  1  0.70993200  0.89901700  0.95308300  1.0
  O  O14  1  0.44048400  0.51587700  0.79403400  1.0
  O  O15  1  0.53562600  0.72929300  0.19797200  1.0
  O  O16  1  0.09425600  0.90262000  0.77890600  1.0
