# generated using pymatgen
data_V2FeO4
_symmetry_space_group_name_H-M   'P 1'
_cell_length_a   5.99319876
_cell_length_b   5.99479398
_cell_length_c   6.08845597
_cell_angle_alpha   119.43434894
_cell_angle_beta   119.41226422
_cell_angle_gamma   89.95182508
_symmetry_Int_Tables_number   1
_chemical_formula_structural   V2FeO4
_chemical_formula_sum   'V4 Fe2 O8'
_cell_volume   157.39622524
_cell_formula_units_Z   2
loop_
 _symmetry_equiv_pos_site_id
 _symmetry_equiv_pos_as_xyz
  1  'x, y, z'
loop_
 _atom_site_type_symbol
 _atom_site_label
 _atom_site_symmetry_multiplicity
 _atom_site_fract_x
 _atom_site_fract_y
 _atom_site_fract_z
 _atom_site_occupancy
  V  V0  1  0.99997200  0.50000700  0.49997100  1.0
  V  V1  1  0.50005900  0.49994700  0.50009800  1.0
  V  V2  1  0.49994800  0.00000400  0.99998300  1.0
  V  V3  1  0.50010100  0.49997300  0.99997100  1.0
  Fe  Fe4  1  0.87703100  0.12278800  0.74987900  1.0
  Fe  Fe5  1  0.12303000  0.87716000  0.25003500  1.0
  O  O6  1  0.25244300  0.74915600  0.51732000  1.0
  O  O7  1  0.74954500  0.73162100  0.48576000  1.0
  O  O8  1  0.26827900  0.25026000  0.01420800  1.0
  O  O9  1  0.74909400  0.25230700  0.01732700  1.0
  O  O10  1  0.73174400  0.74984800  0.98588000  1.0
  O  O11  1  0.25091300  0.74770300  0.98264100  1.0
  O  O12  1  0.74750200  0.25085500  0.48269400  1.0
  O  O13  1  0.25033900  0.26837300  0.51423200  1.0
