# generated using pymatgen
data_V2ZnO6
_symmetry_space_group_name_H-M   'P 1'
_cell_length_a   3.57913600
_cell_length_b   5.02756476
_cell_length_c   6.66013174
_cell_angle_alpha   109.75376868
_cell_angle_beta   90.00000000
_cell_angle_gamma   110.85175605
_symmetry_Int_Tables_number   1
_chemical_formula_structural   V2ZnO6
_chemical_formula_sum   'V2 Zn1 O6'
_cell_volume   104.41415198
_cell_formula_units_Z   1
loop_
 _symmetry_equiv_pos_site_id
 _symmetry_equiv_pos_as_xyz
  1  'x, y, z'
loop_
 _atom_site_type_symbol
 _atom_site_label
 _atom_site_symmetry_multiplicity
 _atom_site_fract_x
 _atom_site_fract_y
 _atom_site_fract_z
 _atom_site_occupancy
  V  V0  1  0.83299600  0.61719700  0.34771700  1.0
  V  V1  1  0.21579900  0.38280300  0.65228300  1.0
  Zn  Zn2  1  0.00816800  0.00000000  0.00000000  1.0
  O  O3  1  0.71886800  0.38879900  0.56649300  1.0
  O  O4  1  0.68442500  0.31354700  0.11258300  1.0
  O  O5  1  0.33006900  0.61120100  0.43350700  1.0
  O  O6  1  0.37087800  0.68645300  0.88741700  1.0
  O  O7  1  0.05569600  0.06459600  0.72150600  1.0
  O  O8  1  0.99110000  0.93540400  0.27849400  1.0
