# generated using pymatgen
data_V3Te4
_symmetry_space_group_name_H-M   'P 1'
_cell_length_a   3.96052800
_cell_length_b   6.87439239
_cell_length_c   7.29080085
_cell_angle_alpha   116.42084395
_cell_angle_beta   105.76017196
_cell_angle_gamma   90.00000000
_symmetry_Int_Tables_number   1
_chemical_formula_structural   V3Te4
_chemical_formula_sum   'V3 Te4'
_cell_volume   169.39438529
_cell_formula_units_Z   1
loop_
 _symmetry_equiv_pos_site_id
 _symmetry_equiv_pos_as_xyz
  1  'x, y, z'
loop_
 _atom_site_type_symbol
 _atom_site_label
 _atom_site_symmetry_multiplicity
 _atom_site_fract_x
 _atom_site_fract_y
 _atom_site_fract_z
 _atom_site_occupancy
  V  V0  1  0.74421400  0.70638800  0.48842800  1.0
  V  V1  1  0.25578600  0.29361200  0.51157200  1.0
  V  V2  1  0.00000000  0.00000000  0.00000000  1.0
  Te  Te3  1  0.36330600  0.02369300  0.72661200  1.0
  Te  Te4  1  0.63669400  0.97630700  0.27338800  1.0
  Te  Te5  1  0.88883300  0.54746000  0.77766600  1.0
  Te  Te6  1  0.11116700  0.45254000  0.22233400  1.0
