# generated using pymatgen
data_V4(OF3)3
_symmetry_space_group_name_H-M   'P 1'
_cell_length_a   5.20746627
_cell_length_b   5.40855711
_cell_length_c   9.18582666
_cell_angle_alpha   73.02754355
_cell_angle_beta   89.66658764
_cell_angle_gamma   61.45327230
_symmetry_Int_Tables_number   1
_chemical_formula_structural   V4(OF3)3
_chemical_formula_sum   'V4 O3 F9'
_cell_volume   214.59727886
_cell_formula_units_Z   1
loop_
 _symmetry_equiv_pos_site_id
 _symmetry_equiv_pos_as_xyz
  1  'x, y, z'
loop_
 _atom_site_type_symbol
 _atom_site_label
 _atom_site_symmetry_multiplicity
 _atom_site_fract_x
 _atom_site_fract_y
 _atom_site_fract_z
 _atom_site_occupancy
  V  V0  1  0.25080600  0.50039300  0.74975200  1.0
  V  V1  1  0.47804700  0.98691000  0.50098600  1.0
  V  V2  1  0.78266500  0.48100000  0.25506100  1.0
  V  V3  1  0.02162200  0.01552100  0.99711800  1.0
  O  O4  1  0.15836200  0.23781500  0.91927200  1.0
  O  O5  1  0.14487700  0.25839200  0.33120000  1.0
  O  O6  1  0.34405200  0.76010100  0.58143000  1.0
  F  F7  1  0.67307900  0.23963100  0.83041900  1.0
  F  F8  1  0.65211900  0.25572500  0.41743600  1.0
  F  F9  1  0.22260400  0.73877900  0.88043400  1.0
  F  F10  1  0.27999800  0.25777400  0.62213800  1.0
  F  F11  1  0.83008000  0.76116900  0.66830600  1.0
  F  F12  1  0.83063000  0.75477300  0.07835700  1.0
  F  F13  1  0.71387400  0.76084700  0.36903900  1.0
  F  F14  1  0.77744600  0.24988600  0.12503700  1.0
  F  F15  1  0.33974000  0.74128300  0.17401600  1.0
