# generated using pymatgen
data_V4(OF3)3
_symmetry_space_group_name_H-M   'P 1'
_cell_length_a   5.23140800
_cell_length_b   5.41658213
_cell_length_c   7.57439765
_cell_angle_alpha   92.52076252
_cell_angle_beta   89.99885778
_cell_angle_gamma   89.67316390
_symmetry_Int_Tables_number   1
_chemical_formula_structural   V4(OF3)3
_chemical_formula_sum   'V4 O3 F9'
_cell_volume   214.41960697
_cell_formula_units_Z   1
loop_
 _symmetry_equiv_pos_site_id
 _symmetry_equiv_pos_as_xyz
  1  'x, y, z'
loop_
 _atom_site_type_symbol
 _atom_site_label
 _atom_site_symmetry_multiplicity
 _atom_site_fract_x
 _atom_site_fract_y
 _atom_site_fract_z
 _atom_site_occupancy
  V  V0  1  0.51912500  0.47770100  0.49471900  1.0
  V  V1  1  0.47431300  0.46691900  0.99390700  1.0
  V  V2  1  0.00223800  0.00337900  0.50031400  1.0
  V  V3  1  0.96509200  0.97479200  0.00659100  1.0
  O  O4  1  0.29126700  0.22001100  0.96050100  1.0
  O  O5  1  0.70128700  0.22212800  0.46054900  1.0
  O  O6  1  0.72028600  0.78941600  0.04310600  1.0
  F  F7  1  0.10117200  0.00407300  0.24918200  1.0
  F  F8  1  0.20287000  0.30519600  0.54965600  1.0
  F  F9  1  0.21895600  0.71972300  0.94264700  1.0
  F  F10  1  0.30560400  0.78672000  0.54317600  1.0
  F  F11  1  0.40119500  0.51343900  0.24963200  1.0
  F  F12  1  0.59790300  0.50690800  0.75082400  1.0
  F  F13  1  0.79475900  0.29619100  0.05379800  1.0
  F  F14  1  0.79756400  0.70786100  0.44919000  1.0
  F  F15  1  0.90637100  0.00554300  0.75220900  1.0
