# generated using pymatgen
data_V5B6
_symmetry_space_group_name_H-M   'P 1'
_cell_length_a   2.98061600
_cell_length_b   3.04588700
_cell_length_c   10.72462931
_cell_angle_alpha   90.00000000
_cell_angle_beta   97.98774330
_cell_angle_gamma   90.00000000
_symmetry_Int_Tables_number   1
_chemical_formula_structural   V5B6
_chemical_formula_sum   'V5 B6'
_cell_volume   96.42017780
_cell_formula_units_Z   1
loop_
 _symmetry_equiv_pos_site_id
 _symmetry_equiv_pos_as_xyz
  1  'x, y, z'
loop_
 _atom_site_type_symbol
 _atom_site_label
 _atom_site_symmetry_multiplicity
 _atom_site_fract_x
 _atom_site_fract_y
 _atom_site_fract_z
 _atom_site_occupancy
  V  V0  1  0.80570900  0.50000000  0.61141800  1.0
  V  V1  1  0.19429100  0.50000000  0.38858200  1.0
  V  V2  1  0.61655700  0.00000000  0.23311400  1.0
  V  V3  1  0.38344300  0.00000000  0.76688600  1.0
  V  V4  1  0.00000000  0.00000000  0.00000000  1.0
  B  B5  1  0.91528800  0.50000000  0.83057600  1.0
  B  B6  1  0.08471200  0.50000000  0.16942400  1.0
  B  B7  1  0.54083200  0.50000000  0.08166400  1.0
  B  B8  1  0.45916800  0.50000000  0.91833600  1.0
  B  B9  1  0.72629500  0.00000000  0.45259000  1.0
  B  B10  1  0.27370500  0.00000000  0.54741000  1.0
