# generated using pymatgen
data_V6O13
_symmetry_space_group_name_H-M   'P 1'
_cell_length_a   3.79354495
_cell_length_b   6.32380399
_cell_length_c   10.26757094
_cell_angle_alpha   100.33761410
_cell_angle_beta   90.00000070
_cell_angle_gamma   107.45410316
_symmetry_Int_Tables_number   1
_chemical_formula_structural   V6O13
_chemical_formula_sum   'V6 O13'
_cell_volume   230.77958241
_cell_formula_units_Z   1
loop_
 _symmetry_equiv_pos_site_id
 _symmetry_equiv_pos_as_xyz
  1  'x, y, z'
loop_
 _atom_site_type_symbol
 _atom_site_label
 _atom_site_symmetry_multiplicity
 _atom_site_fract_x
 _atom_site_fract_y
 _atom_site_fract_z
 _atom_site_occupancy
  V  V0  1  0.65090600  0.30181100  0.00338600  1.0
  V  V1  1  0.34909400  0.69818900  0.99661400  1.0
  V  V2  1  0.71484400  0.42968700  0.36625700  1.0
  V  V3  1  0.58748200  0.17496200  0.63571900  1.0
  V  V4  1  0.41251800  0.82503800  0.36428000  1.0
  V  V5  1  0.28515600  0.57031400  0.63374300  1.0
  O  O6  1  0.88105100  0.76210000  0.38413700  1.0
  O  O7  1  0.81253600  0.62507300  0.99983400  1.0
  O  O8  1  0.74689100  0.49378300  0.58957700  1.0
  O  O9  1  0.67509200  0.35018300  0.19869500  1.0
  O  O10  1  0.56073500  0.12147000  0.41149800  1.0
  O  O11  1  0.61220600  0.22441100  0.80179400  1.0
  O  O12  1  0.38779500  0.77559000  0.19820600  1.0
  O  O13  1  0.49999900  0.00000000  0.00000000  1.0
  O  O14  1  0.43926500  0.87853000  0.58850200  1.0
  O  O15  1  0.11895000  0.23790200  0.61586300  1.0
  O  O16  1  0.25311000  0.50621800  0.41042300  1.0
  O  O17  1  0.18746400  0.37492700  0.00016600  1.0
  O  O18  1  0.32490700  0.64981600  0.80130500  1.0
