# generated using pymatgen
data_V6O7F5
_symmetry_space_group_name_H-M   'P 1'
_cell_length_a   5.63095889
_cell_length_b   5.63095889
_cell_length_c   7.62117655
_cell_angle_alpha   69.81972754
_cell_angle_beta   69.81972754
_cell_angle_gamma   69.55097136
_symmetry_Int_Tables_number   1
_chemical_formula_structural   V6O7F5
_chemical_formula_sum   'V6 O7 F5'
_cell_volume   205.48471552
_cell_formula_units_Z   1
loop_
 _symmetry_equiv_pos_site_id
 _symmetry_equiv_pos_as_xyz
  1  'x, y, z'
loop_
 _atom_site_type_symbol
 _atom_site_label
 _atom_site_symmetry_multiplicity
 _atom_site_fract_x
 _atom_site_fract_y
 _atom_site_fract_z
 _atom_site_occupancy
  V  V0  1  0.33412400  0.33412400  0.17017300  1.0
  V  V1  1  0.66618300  0.66618300  0.33846100  1.0
  V  V2  1  0.33973800  0.33973800  0.67262400  1.0
  V  V3  1  0.65395100  0.65395100  0.80755300  1.0
  V  V4  1  0.00136100  0.00136100  0.49967800  1.0
  V  V5  1  0.00052000  0.00052000  0.99750200  1.0
  O  O6  1  0.96753900  0.36685800  0.33399300  1.0
  O  O7  1  0.63268600  0.02407200  0.67052100  1.0
  O  O8  1  0.56576000  0.56576000  0.63426200  1.0
  O  O9  1  0.70025900  0.30694300  0.99829700  1.0
  O  O10  1  0.36685800  0.96753900  0.33399300  1.0
  O  O11  1  0.02407200  0.63268600  0.67052100  1.0
  O  O12  1  0.30694300  0.70025900  0.99829700  1.0
  F  F13  1  0.76940900  0.76940900  0.03504800  1.0
  F  F14  1  0.43361800  0.43361800  0.37383500  1.0
  F  F15  1  0.10401900  0.10401900  0.70302300  1.0
  F  F16  1  0.90142000  0.90142000  0.29449700  1.0
  F  F17  1  0.23154000  0.23154000  0.96772400  1.0
