# generated using pymatgen
data_VAgHgO4
_symmetry_space_group_name_H-M   'P 1'
_cell_length_a   5.58377600
_cell_length_b   5.98797245
_cell_length_c   7.25409092
_cell_angle_alpha   98.01948262
_cell_angle_beta   90.00000000
_cell_angle_gamma   117.79110502
_symmetry_Int_Tables_number   1
_chemical_formula_structural   VAgHgO4
_chemical_formula_sum   'V2 Ag2 Hg2 O8'
_cell_volume   211.88261805
_cell_formula_units_Z   2
loop_
 _symmetry_equiv_pos_site_id
 _symmetry_equiv_pos_as_xyz
  1  'x, y, z'
loop_
 _atom_site_type_symbol
 _atom_site_label
 _atom_site_symmetry_multiplicity
 _atom_site_fract_x
 _atom_site_fract_y
 _atom_site_fract_z
 _atom_site_occupancy
  V  V0  1  0.30977900  0.62641900  0.76994800  1.0
  V  V1  1  0.68336000  0.37358100  0.23005200  1.0
  Ag  Ag2  1  0.37203900  0.72392300  0.27854200  1.0
  Ag  Ag3  1  0.64811600  0.27607700  0.72145800  1.0
  Hg  Hg4  1  0.99110800  0.00000000  0.00000000  1.0
  Hg  Hg5  1  0.02712900  0.00000000  0.50000000  1.0
  O  O6  1  0.51255200  0.73252500  0.97499100  1.0
  O  O7  1  0.78002700  0.26747500  0.02500900  1.0
  O  O8  1  0.73622900  0.23741600  0.40776000  1.0
  O  O9  1  0.49881300  0.76258400  0.59224000  1.0
  O  O10  1  0.19256400  0.27822300  0.73240800  1.0
  O  O11  1  0.91434100  0.72177700  0.26759200  1.0
  O  O12  1  0.33506200  0.28578000  0.21189100  1.0
  O  O13  1  0.04928200  0.71422000  0.78810900  1.0
