# generated using pymatgen
data_VF4
_symmetry_space_group_name_H-M   'P 1'
_cell_length_a   4.96053100
_cell_length_b   6.08088100
_cell_length_c   9.78535332
_cell_angle_alpha   90.00000000
_cell_angle_beta   91.00199716
_cell_angle_gamma   90.00000000
_symmetry_Int_Tables_number   1
_chemical_formula_structural   VF4
_chemical_formula_sum   'V4 F16'
_cell_volume   295.12416357
_cell_formula_units_Z   4
loop_
 _symmetry_equiv_pos_site_id
 _symmetry_equiv_pos_as_xyz
  1  'x, y, z'
loop_
 _atom_site_type_symbol
 _atom_site_label
 _atom_site_symmetry_multiplicity
 _atom_site_fract_x
 _atom_site_fract_y
 _atom_site_fract_z
 _atom_site_occupancy
  V  V0  1  0.74999800  0.33707500  0.99787900  1.0
  V  V1  1  0.75000200  0.83707500  0.50212100  1.0
  V  V2  1  0.24999800  0.16292500  0.49787900  1.0
  V  V3  1  0.25000200  0.66292500  0.00212100  1.0
  F  F4  1  0.57336800  0.58575700  0.10416000  1.0
  F  F5  1  0.62198400  0.13372400  0.10787200  1.0
  F  F6  1  0.61869000  0.64551500  0.61919900  1.0
  F  F7  1  0.57376100  0.09252400  0.60170200  1.0
  F  F8  1  0.87801600  0.63372400  0.39212800  1.0
  F  F9  1  0.92663200  0.08575700  0.39584000  1.0
  F  F10  1  0.92623900  0.59252400  0.89829800  1.0
  F  F11  1  0.88131000  0.14551500  0.88080100  1.0
  F  F12  1  0.11869000  0.85448500  0.11919900  1.0
  F  F13  1  0.07376100  0.40747600  0.10170200  1.0
  F  F14  1  0.07336800  0.91424300  0.60416000  1.0
  F  F15  1  0.12198400  0.36627600  0.60787200  1.0
  F  F16  1  0.42623900  0.90747600  0.39829800  1.0
  F  F17  1  0.38131000  0.35448500  0.38080100  1.0
  F  F18  1  0.37801600  0.86627600  0.89212800  1.0
  F  F19  1  0.42663200  0.41424300  0.89584000  1.0
