# generated using pymatgen
data_VO2
_symmetry_space_group_name_H-M   'P 1'
_cell_length_a   3.03873145
_cell_length_b   4.50495600
_cell_length_c   4.50632111
_cell_angle_alpha   90.00000000
_cell_angle_beta   90.03043838
_cell_angle_gamma   90.00000000
_symmetry_Int_Tables_number   1
_chemical_formula_structural   VO2
_chemical_formula_sum   'V2 O4'
_cell_volume   61.68860474
_cell_formula_units_Z   2
loop_
 _symmetry_equiv_pos_site_id
 _symmetry_equiv_pos_as_xyz
  1  'x, y, z'
loop_
 _atom_site_type_symbol
 _atom_site_label
 _atom_site_symmetry_multiplicity
 _atom_site_fract_x
 _atom_site_fract_y
 _atom_site_fract_z
 _atom_site_occupancy
  O  O4  1  0.50033050  0.70152800  0.69967950  1.0
  O  O5  1  0.99966950  0.20152800  0.80032050  1.0
  O  O6  1  0.49966950  0.29847200  0.30032050  1.0
  O  O7  1  0.00033050  0.79847200  0.19967950  1.0
  V  V0  1  0.00000000  0.50000000  0.50000000  1.0
  V  V1  1  0.50000000  1.00000000  1.00000000  1.0
