# generated using pymatgen
data_VO2
_symmetry_space_group_name_H-M   'P 1'
_cell_length_a   5.00778928
_cell_length_b   5.01785027
_cell_length_c   5.28831687
_cell_angle_alpha   106.24445499
_cell_angle_beta   106.30795912
_cell_angle_gamma   111.80029952
_symmetry_Int_Tables_number   1
_chemical_formula_structural   VO2
_chemical_formula_sum   'V3 O6'
_cell_volume   106.85924319
_cell_formula_units_Z   3
loop_
 _symmetry_equiv_pos_site_id
 _symmetry_equiv_pos_as_xyz
  1  'x, y, z'
loop_
 _atom_site_type_symbol
 _atom_site_label
 _atom_site_symmetry_multiplicity
 _atom_site_fract_x
 _atom_site_fract_y
 _atom_site_fract_z
 _atom_site_occupancy
  O  O6  1  0.17991200  0.18558600  0.75854400  1.0
  O  O8  1  0.80656750  0.81380750  0.22647200  1.0
  O  O10  1  0.96128150  0.62946750  0.72899200  1.0
  O  O12  1  0.62343400  0.96948250  0.73001000  1.0
  O  O14  1  0.04479550  0.38922750  0.29680500  1.0
  O  O16  1  0.38254400  0.04989450  0.29632600  1.0
  V  V0  1  0.97994700  0.98621050  0.98074900  1.0
  V  V1  1  0.17537550  0.82154900  0.48991400  1.0
  V  V2  1  0.81739600  0.18352150  0.49218700  1.0
