# generated using pymatgen
data_VOF2
_symmetry_space_group_name_H-M   'P 1'
_cell_length_a   5.19990336
_cell_length_b   5.20093041
_cell_length_c   5.32783274
_cell_angle_alpha   93.72674609
_cell_angle_beta   117.82217131
_cell_angle_gamma   117.07580583
_symmetry_Int_Tables_number   1
_chemical_formula_structural   VOF2
_chemical_formula_sum   'V2 O2 F4'
_cell_volume   106.19019967
_cell_formula_units_Z   2
loop_
 _symmetry_equiv_pos_site_id
 _symmetry_equiv_pos_as_xyz
  1  'x, y, z'
loop_
 _atom_site_type_symbol
 _atom_site_label
 _atom_site_symmetry_multiplicity
 _atom_site_fract_x
 _atom_site_fract_y
 _atom_site_fract_z
 _atom_site_occupancy
  V  V0  1  1.00000000  0.50000000  0.50000000  1.0
  V  V1  1  0.00000000  0.00000000  0.00000000  1.0
  O  O2  1  0.04853100  0.79851500  0.74996700  1.0
  O  O3  1  0.95146900  0.20148500  0.25003300  1.0
  F  F4  1  0.50130000  0.66679200  0.77409200  1.0
  F  F5  1  0.89270300  0.22719300  0.72593400  1.0
  F  F6  1  0.10729800  0.77280700  0.27406600  1.0
  F  F7  1  0.49869900  0.33320800  0.22590800  1.0
