# generated using pymatgen
data_VOF
_symmetry_space_group_name_H-M   'P 1'
_cell_length_a   3.10957100
_cell_length_b   4.74676800
_cell_length_c   14.23552523
_cell_angle_alpha   93.29679027
_cell_angle_beta   90.00000000
_cell_angle_gamma   90.00000000
_symmetry_Int_Tables_number   1
_chemical_formula_structural   VOF
_chemical_formula_sum   'V6 O6 F6'
_cell_volume   209.77447518
_cell_formula_units_Z   6
loop_
 _symmetry_equiv_pos_site_id
 _symmetry_equiv_pos_as_xyz
  1  'x, y, z'
loop_
 _atom_site_type_symbol
 _atom_site_label
 _atom_site_symmetry_multiplicity
 _atom_site_fract_x
 _atom_site_fract_y
 _atom_site_fract_z
 _atom_site_occupancy
  V  V0  1  0.00000000  0.04685600  0.99942100  1.0
  V  V1  1  1.00000000  0.00637200  0.33333333  1.0
  V  V2  1  1.00000000  0.98274500  0.66679400  1.0
  V  V3  1  0.50000000  0.51946000  0.16675600  1.0
  V  V4  1  0.50000000  0.49455100  0.49984100  1.0
  V  V5  1  0.50000000  0.44968000  0.83336700  1.0
  O  O6  1  0.50000000  0.20223700  0.93378200  1.0
  O  O7  1  0.00000000  0.31725000  0.10237800  1.0
  O  O8  1  1.00000000  0.28234100  0.76540000  1.0
  O  O9  1  0.00000000  0.29948100  0.43364800  1.0
  O  O10  1  0.00000000  0.71338500  0.23312800  1.0
  O  O11  1  0.00000000  0.69013100  0.56701800  1.0
  F  F12  1  0.50000000  0.20669100  0.26894600  1.0
  F  F13  1  0.50000000  0.18333800  0.60187800  1.0
  F  F14  1  0.00000000  0.69739500  0.89906800  1.0
  F  F15  1  0.50000000  0.81442900  0.06174300  1.0
  F  F16  1  0.50000000  0.80602400  0.39836700  1.0
  F  F17  1  0.50000000  0.78763200  0.73512500  1.0
