# generated using pymatgen
data_VOF
_symmetry_space_group_name_H-M   'P 1'
_cell_length_a   6.01812016
_cell_length_b   6.01845610
_cell_length_c   6.01930492
_cell_angle_alpha   100.27517956
_cell_angle_beta   100.28712335
_cell_angle_gamma   100.28070184
_symmetry_Int_Tables_number   1
_chemical_formula_structural   VOF
_chemical_formula_sum   'V6 O6 F6'
_cell_volume   206.03202980
_cell_formula_units_Z   6
loop_
 _symmetry_equiv_pos_site_id
 _symmetry_equiv_pos_as_xyz
  1  'x, y, z'
loop_
 _atom_site_type_symbol
 _atom_site_label
 _atom_site_symmetry_multiplicity
 _atom_site_fract_x
 _atom_site_fract_y
 _atom_site_fract_z
 _atom_site_occupancy
  V  V0  1  0.14710400  0.33048400  0.60248500  1.0
  V  V1  1  0.33043200  0.60254500  0.14706200  1.0
  V  V2  1  0.60254400  0.14709500  0.33048100  1.0
  V  V3  1  0.39746300  0.85290800  0.66951100  1.0
  V  V4  1  0.66956200  0.39745300  0.85294000  1.0
  V  V5  1  0.85289500  0.66950900  0.39751600  1.0
  O  O6  1  0.17706300  0.57427000  0.41581100  1.0
  O  O7  1  0.42583600  0.58418300  0.82293000  1.0
  O  O8  1  0.58424100  0.82300700  0.42586500  1.0
  O  O9  1  0.41577000  0.17699200  0.57413500  1.0
  O  O10  1  0.57415100  0.41581200  0.17706300  1.0
  O  O11  1  0.82293400  0.42572200  0.58418300  1.0
  F  F12  1  0.92700000  0.09279000  0.33194600  1.0
  F  F13  1  0.90731300  0.66793200  0.07320700  1.0
  F  F14  1  0.66792200  0.07314800  0.90738000  1.0
  F  F15  1  0.33209500  0.92685000  0.09263200  1.0
  F  F16  1  0.09266300  0.33209200  0.92679000  1.0
  F  F17  1  0.07301000  0.90721000  0.66806400  1.0
