# generated using pymatgen
data_VPO5
_symmetry_space_group_name_H-M   'P 1'
_cell_length_a   5.18290640
_cell_length_b   5.18290640
_cell_length_c   7.51004094
_cell_angle_alpha   105.26395193
_cell_angle_beta   105.26395193
_cell_angle_gamma   97.11206105
_symmetry_Int_Tables_number   1
_chemical_formula_structural   VPO5
_chemical_formula_sum   'V2 P2 O10'
_cell_volume   183.66974404
_cell_formula_units_Z   2
loop_
 _symmetry_equiv_pos_site_id
 _symmetry_equiv_pos_as_xyz
  1  'x, y, z'
loop_
 _atom_site_type_symbol
 _atom_site_label
 _atom_site_symmetry_multiplicity
 _atom_site_fract_x
 _atom_site_fract_y
 _atom_site_fract_z
 _atom_site_occupancy
  V  V0  1  0.05524400  0.51777900  0.53782900  1.0
  V  V1  1  0.51777900  0.05524400  0.03782900  1.0
  P  P2  1  0.07154000  0.92134500  0.24954700  1.0
  P  P3  1  0.92134500  0.07154000  0.74954700  1.0
  O  O4  1  0.76312500  0.84058700  0.12802600  1.0
  O  O5  1  0.15361300  0.22836800  0.36525700  1.0
  O  O6  1  0.22836800  0.15361300  0.86525700  1.0
  O  O7  1  0.84058700  0.76312500  0.62802600  1.0
  O  O8  1  0.86359700  0.24490000  0.60916200  1.0
  O  O9  1  0.74108600  0.12867800  0.88222800  1.0
  O  O10  1  0.12867800  0.74108600  0.38222800  1.0
  O  O11  1  0.24490000  0.86359700  0.10916200  1.0
  O  O12  1  0.33107200  0.62853700  0.71995000  1.0
  O  O13  1  0.62853700  0.33107200  0.21995000  1.0
