# generated using pymatgen
data_VS4
_symmetry_space_group_name_H-M   'P 1'
_cell_length_a   7.30609018
_cell_length_b   8.62120752
_cell_length_c   8.62120752
_cell_angle_alpha   82.21579793
_cell_angle_beta   71.75477915
_cell_angle_gamma   71.75477915
_symmetry_Int_Tables_number   1
_chemical_formula_structural   VS4
_chemical_formula_sum   'V4 S16'
_cell_volume   489.37651035
_cell_formula_units_Z   4
loop_
 _symmetry_equiv_pos_site_id
 _symmetry_equiv_pos_as_xyz
  1  'x, y, z'
loop_
 _atom_site_type_symbol
 _atom_site_label
 _atom_site_symmetry_multiplicity
 _atom_site_fract_x
 _atom_site_fract_y
 _atom_site_fract_z
 _atom_site_occupancy
  V  V0  1  0.11607600  0.38376300  0.88438300  1.0
  V  V1  1  0.88392400  0.61623700  0.11561700  1.0
  V  V2  1  0.38392400  0.11561700  0.61623700  1.0
  V  V3  1  0.61607600  0.88438300  0.38376300  1.0
  S  S4  1  0.53848100  0.83447900  0.67268900  1.0
  S  S5  1  0.26909600  0.02792400  0.42219200  1.0
  S  S6  1  0.46151900  0.16552100  0.32731100  1.0
  S  S7  1  0.23090400  0.57780800  0.97207600  1.0
  S  S8  1  0.95783400  0.67347800  0.34989600  1.0
  S  S9  1  0.43859700  0.19186800  0.87008200  1.0
  S  S10  1  0.93859700  0.87008200  0.19186800  1.0
  S  S11  1  0.76909600  0.42219200  0.02792400  1.0
  S  S12  1  0.73090400  0.97207600  0.57780800  1.0
  S  S13  1  0.45783400  0.34989600  0.67347800  1.0
  S  S14  1  0.56140300  0.80813200  0.12991800  1.0
  S  S15  1  0.06140300  0.12991800  0.80813200  1.0
  S  S16  1  0.04216600  0.32652200  0.65010400  1.0
  S  S17  1  0.03848100  0.67268900  0.83447900  1.0
  S  S18  1  0.54216600  0.65010400  0.32652200  1.0
  S  S19  1  0.96151900  0.32731100  0.16552100  1.0
