# generated using pymatgen
data_W2Se3S
_symmetry_space_group_name_H-M   'P 1'
_cell_length_a   3.28695800
_cell_length_b   3.28695789
_cell_length_c   37.44428300
_cell_angle_alpha   90.00000000
_cell_angle_beta   90.00000000
_cell_angle_gamma   120.00000112
_symmetry_Int_Tables_number   1
_chemical_formula_structural   W2Se3S
_chemical_formula_sum   'W4 Se6 S2'
_cell_volume   350.35187091
_cell_formula_units_Z   2
loop_
 _symmetry_equiv_pos_site_id
 _symmetry_equiv_pos_as_xyz
  1  'x, y, z'
loop_
 _atom_site_type_symbol
 _atom_site_label
 _atom_site_symmetry_multiplicity
 _atom_site_fract_x
 _atom_site_fract_y
 _atom_site_fract_z
 _atom_site_occupancy
  W  W0  1  0.00000000  0.00000000  0.90608100  1.0
  W  W1  1  0.00000000  0.00000000  0.53034100  1.0
  W  W2  1  0.66666667  0.33333333  0.71821100  1.0
  W  W3  1  0.66666667  0.33333333  0.34245300  1.0
  Se  Se4  1  0.00000000  0.00000000  0.67293300  1.0
  Se  Se5  1  0.00000000  0.00000000  0.29717300  1.0
  Se  Se6  1  0.66666667  0.33333333  0.57561800  1.0
  Se  Se7  1  0.66666667  0.33333333  0.48506100  1.0
  Se  Se8  1  0.00000000  0.00000000  0.76348300  1.0
  Se  Se9  1  0.00000000  0.00000000  0.38774900  1.0
  S  S10  1  0.66666667  0.33333333  0.94723100  1.0
  S  S11  1  0.66666667  0.33333333  0.86491800  1.0
