# generated using pymatgen
data_WO2F
_symmetry_space_group_name_H-M   'P 1'
_cell_length_a   5.55958776
_cell_length_b   5.55958776
_cell_length_c   5.58049750
_cell_angle_alpha   92.52946357
_cell_angle_beta   117.82998278
_cell_angle_gamma   119.14986044
_symmetry_Int_Tables_number   1
_chemical_formula_structural   WO2F
_chemical_formula_sum   'W2 O4 F2'
_cell_volume   124.71348307
_cell_formula_units_Z   2
loop_
 _symmetry_equiv_pos_site_id
 _symmetry_equiv_pos_as_xyz
  1  'x, y, z'
loop_
 _atom_site_type_symbol
 _atom_site_label
 _atom_site_symmetry_multiplicity
 _atom_site_fract_x
 _atom_site_fract_y
 _atom_site_fract_z
 _atom_site_occupancy
  W  W0  1  0.03938100  0.25083300  0.84248300  1.0
  W  W1  1  0.09165000  0.80310200  0.34248300  1.0
  O  O2  1  0.09301900  0.06308900  0.59702200  1.0
  O  O3  1  0.56335300  0.01008900  0.60150000  1.0
  O  O4  1  0.03393300  0.50400300  0.09702200  1.0
  O  O5  1  0.09141100  0.03814700  0.10150000  1.0
  F  F6  1  0.03752500  0.53048400  0.59534800  1.0
  F  F7  1  0.56486400  0.55782300  0.09534800  1.0
