# generated using pymatgen
data_Y2CdS4
_symmetry_space_group_name_H-M   'P 1'
_cell_length_a   8.00019339
_cell_length_b   8.00019339
_cell_length_c   8.00019339
_cell_angle_alpha   60.00000000
_cell_angle_beta   60.00000000
_cell_angle_gamma   60.00000000
_symmetry_Int_Tables_number   1
_chemical_formula_structural   Y2CdS4
_chemical_formula_sum   'Y4 Cd2 S8'
_cell_volume   362.06492810
_cell_formula_units_Z   2
loop_
 _symmetry_equiv_pos_site_id
 _symmetry_equiv_pos_as_xyz
  1  'x, y, z'
loop_
 _atom_site_type_symbol
 _atom_site_label
 _atom_site_symmetry_multiplicity
 _atom_site_fract_x
 _atom_site_fract_y
 _atom_site_fract_z
 _atom_site_occupancy
  Y  Y0  1  0.87500000  0.87500000  0.87500000  1.0
  Y  Y1  1  0.87500000  0.87500000  0.37500000  1.0
  Y  Y2  1  0.87500000  0.37500000  0.87500000  1.0
  Y  Y3  1  0.37500000  0.87500000  0.87500000  1.0
  Cd  Cd4  1  0.25000000  0.25000000  0.25000000  1.0
  Cd  Cd5  1  0.50000000  0.50000000  0.50000000  1.0
  S  S6  1  0.10306400  0.63231200  0.63231200  1.0
  S  S7  1  0.11768700  0.11768800  0.11768800  1.0
  S  S8  1  0.11768700  0.11768800  0.64693700  1.0
  S  S9  1  0.63231300  0.10306300  0.63231200  1.0
  S  S10  1  0.11768700  0.64693700  0.11768800  1.0
  S  S11  1  0.63231300  0.63231200  0.10306300  1.0
  S  S12  1  0.64693600  0.11768800  0.11768800  1.0
  S  S13  1  0.63231300  0.63231200  0.63231200  1.0
