# generated using pymatgen
data_Y2Ge5Ru3
_symmetry_space_group_name_H-M   'P 1'
_cell_length_a   5.79591600
_cell_length_b   8.49542846
_cell_length_c   8.49542846
_cell_angle_alpha   71.25305994
_cell_angle_beta   70.05489314
_cell_angle_gamma   70.05489314
_symmetry_Int_Tables_number   1
_chemical_formula_structural   Y2Ge5Ru3
_chemical_formula_sum   'Y4 Ge10 Ru6'
_cell_volume   359.54229686
_cell_formula_units_Z   2
loop_
 _symmetry_equiv_pos_site_id
 _symmetry_equiv_pos_as_xyz
  1  'x, y, z'
loop_
 _atom_site_type_symbol
 _atom_site_label
 _atom_site_symmetry_multiplicity
 _atom_site_fract_x
 _atom_site_fract_y
 _atom_site_fract_z
 _atom_site_occupancy
  Y  Y0  1  0.13884400  0.09239000  0.62992300  1.0
  Y  Y1  1  0.36115700  0.37007600  0.90761000  1.0
  Y  Y2  1  0.86115600  0.90761000  0.37007700  1.0
  Y  Y3  1  0.63884300  0.62992400  0.09239000  1.0
  Ge  Ge4  1  0.54280100  0.70719900  0.70719900  1.0
  Ge  Ge5  1  0.58750100  0.23638000  0.58861800  1.0
  Ge  Ge6  1  0.91250000  0.41138200  0.76361900  1.0
  Ge  Ge7  1  0.25000000  0.00000000  0.00000000  1.0
  Ge  Ge8  1  0.04280100  0.70719900  0.70719900  1.0
  Ge  Ge9  1  0.75000000  0.00000000  1.00000000  1.0
  Ge  Ge10  1  0.41249900  0.76362000  0.41138200  1.0
  Ge  Ge11  1  0.95719900  0.29280100  0.29280100  1.0
  Ge  Ge12  1  0.08750000  0.58861800  0.23638100  1.0
  Ge  Ge13  1  0.45719900  0.29280100  0.29280100  1.0
  Ru  Ru14  1  0.35244100  0.05612600  0.23899200  1.0
  Ru  Ru15  1  0.14756000  0.76100800  0.94387300  1.0
  Ru  Ru16  1  0.85244000  0.23899200  0.05612700  1.0
  Ru  Ru17  1  0.64755900  0.94387400  0.76100800  1.0
  Ru  Ru18  1  0.25000000  0.50000000  0.50000000  1.0
  Ru  Ru19  1  0.75000000  0.50000000  0.50000000  1.0
