# generated using pymatgen
data_Y2Hf2O7
_symmetry_space_group_name_H-M   'P 1'
_cell_length_a   5.57522932
_cell_length_b   5.91721133
_cell_length_c   5.91721133
_cell_angle_alpha   71.32157045
_cell_angle_beta   84.11705090
_cell_angle_gamma   95.88294910
_symmetry_Int_Tables_number   1
_chemical_formula_structural   Y2Hf2O7
_chemical_formula_sum   'Y2 Hf2 O7'
_cell_volume   182.04577203
_cell_formula_units_Z   1
loop_
 _symmetry_equiv_pos_site_id
 _symmetry_equiv_pos_as_xyz
  1  'x, y, z'
loop_
 _atom_site_type_symbol
 _atom_site_label
 _atom_site_symmetry_multiplicity
 _atom_site_fract_x
 _atom_site_fract_y
 _atom_site_fract_z
 _atom_site_occupancy
  Y  Y0  1  1.00000000  0.69088600  0.69088600  1.0
  Y  Y1  1  1.00000000  0.30911400  0.30911400  1.0
  Hf  Hf2  1  0.39741000  0.25618300  0.74381700  1.0
  Hf  Hf3  1  0.60259000  0.74381700  0.25618300  1.0
  O  O4  1  0.19984400  0.40252000  0.94015100  1.0
  O  O5  1  0.19984400  0.05984900  0.59748000  1.0
  O  O6  1  0.72696800  0.44085400  0.55914600  1.0
  O  O7  1  0.50000000  0.00000000  0.00000000  1.0
  O  O8  1  0.27303200  0.55914600  0.44085400  1.0
  O  O9  1  0.80015600  0.94015100  0.40252000  1.0
  O  O10  1  0.80015600  0.59748000  0.05984900  1.0
