# generated using pymatgen
data_Y3(AgGe)4
_symmetry_space_group_name_H-M   'P 1'
_cell_length_a   4.34838300
_cell_length_b   7.17258900
_cell_length_c   8.37856838
_cell_angle_alpha   115.34272016
_cell_angle_beta   105.04005967
_cell_angle_gamma   90.00000000
_symmetry_Int_Tables_number   1
_chemical_formula_structural   Y3(AgGe)4
_chemical_formula_sum   'Y3 Ag4 Ge4'
_cell_volume   226.22745136
_cell_formula_units_Z   1
loop_
 _symmetry_equiv_pos_site_id
 _symmetry_equiv_pos_as_xyz
  1  'x, y, z'
loop_
 _atom_site_type_symbol
 _atom_site_label
 _atom_site_symmetry_multiplicity
 _atom_site_fract_x
 _atom_site_fract_y
 _atom_site_fract_z
 _atom_site_occupancy
  Y  Y0  1  0.12607700  0.62607800  0.25215500  1.0
  Y  Y1  1  0.87392300  0.37392200  0.74784500  1.0
  Y  Y2  1  0.00000000  0.00000000  0.00000000  1.0
  Ag  Ag3  1  0.66908000  0.97234600  0.33815900  1.0
  Ag  Ag4  1  0.33092000  0.02765400  0.66184100  1.0
  Ag  Ag5  1  0.66908000  0.36581300  0.33815900  1.0
  Ag  Ag6  1  0.33092000  0.63418700  0.66184100  1.0
  Ge  Ge7  1  0.78316200  0.78316100  0.56632300  1.0
  Ge  Ge8  1  0.21683800  0.21683900  0.43367700  1.0
  Ge  Ge9  1  0.50000000  0.68170300  1.00000000  1.0
  Ge  Ge10  1  0.50000000  0.31829700  1.00000000  1.0
