# generated using pymatgen
data_Y3Mg2VS8
_symmetry_space_group_name_H-M   'P 1'
_cell_length_a   7.68358396
_cell_length_b   7.70002481
_cell_length_c   7.70768256
_cell_angle_alpha   60.76648055
_cell_angle_beta   60.93188623
_cell_angle_gamma   60.93733786
_symmetry_Int_Tables_number   1
_chemical_formula_structural   Y3Mg2VS8
_chemical_formula_sum   'Y3 Mg2 V1 S8'
_cell_volume   328.83637724
_cell_formula_units_Z   1
loop_
 _symmetry_equiv_pos_site_id
 _symmetry_equiv_pos_as_xyz
  1  'x, y, z'
loop_
 _atom_site_type_symbol
 _atom_site_label
 _atom_site_symmetry_multiplicity
 _atom_site_fract_x
 _atom_site_fract_y
 _atom_site_fract_z
 _atom_site_occupancy
  Y  Y0  1  0.49998200  0.50001300  0.49999100  1.0
  Y  Y1  1  0.49999500  1.00000000  0.99999400  1.0
  Y  Y2  1  0.99999700  0.50004400  0.99996600  1.0
  Mg  Mg3  1  0.87618900  0.87508100  0.37508800  1.0
  Mg  Mg4  1  0.12381500  0.12492000  0.62490600  1.0
  V  V5  1  0.50004200  0.49991400  0.00010100  1.0
  S  S6  1  0.72932300  0.73034700  0.76980300  1.0
  S  S7  1  0.27044900  0.73002200  0.77000700  1.0
  S  S8  1  0.25321400  0.25488200  0.75426400  1.0
  S  S9  1  0.73124300  0.26850800  0.76906400  1.0
  S  S10  1  0.74676500  0.74513000  0.24574100  1.0
  S  S11  1  0.26875400  0.73148900  0.23093000  1.0
  S  S12  1  0.27066700  0.26967700  0.23018700  1.0
  S  S13  1  0.72956900  0.26997500  0.22995700  1.0
