# generated using pymatgen
data_Y4SiS3
_symmetry_space_group_name_H-M   'P 1'
_cell_length_a   5.61922800
_cell_length_b   5.61922800
_cell_length_c   6.89487126
_cell_angle_alpha   114.04746623
_cell_angle_beta   114.04746623
_cell_angle_gamma   90.00000000
_symmetry_Int_Tables_number   1
_chemical_formula_structural   Y4SiS3
_chemical_formula_sum   'Y4 Si1 S3'
_cell_volume   177.92405411
_cell_formula_units_Z   1
loop_
 _symmetry_equiv_pos_site_id
 _symmetry_equiv_pos_as_xyz
  1  'x, y, z'
loop_
 _atom_site_type_symbol
 _atom_site_label
 _atom_site_symmetry_multiplicity
 _atom_site_fract_x
 _atom_site_fract_y
 _atom_site_fract_z
 _atom_site_occupancy
  Y  Y0  1  0.75005700  0.75005700  0.50011400  1.0
  Y  Y1  1  0.24994400  0.24994400  0.49988800  1.0
  Y  Y2  1  1.00000000  0.50000000  0.00000000  1.0
  Y  Y3  1  0.50000000  1.00000000  1.00000000  1.0
  Si  Si4  1  0.00000000  0.00000000  0.00000000  1.0
  S  S5  1  0.50000000  0.50000000  0.00000000  1.0
  S  S6  1  0.25000000  0.75000000  0.50000000  1.0
  S  S7  1  0.75000000  0.25000000  0.50000000  1.0
