# generated using pymatgen
data_YAgSe2
_symmetry_space_group_name_H-M   'P 1'
_cell_length_a   5.72809781
_cell_length_b   5.72834335
_cell_length_c   7.26263699
_cell_angle_alpha   67.06293436
_cell_angle_beta   66.87577049
_cell_angle_gamma   89.99357295
_symmetry_Int_Tables_number   1
_chemical_formula_structural   YAgSe2
_chemical_formula_sum   'Y2 Ag2 Se4'
_cell_volume   198.51265919
_cell_formula_units_Z   2
loop_
 _symmetry_equiv_pos_site_id
 _symmetry_equiv_pos_as_xyz
  1  'x, y, z'
loop_
 _atom_site_type_symbol
 _atom_site_label
 _atom_site_symmetry_multiplicity
 _atom_site_fract_x
 _atom_site_fract_y
 _atom_site_fract_z
 _atom_site_occupancy
  Y  Y0  1  0.00149700  0.99695900  0.99884100  1.0
  Y  Y1  1  0.75015800  0.25537400  0.49703800  1.0
  Ag  Ag2  1  0.50374600  0.49488700  0.00430800  1.0
  Ag  Ag3  1  0.24883600  0.74608500  0.49549800  1.0
  Se  Se4  1  0.76119600  0.76485400  0.47376400  1.0
  Se  Se5  1  0.23759400  0.23486700  0.52313000  1.0
  Se  Se6  1  0.99228200  0.48633000  0.02226100  1.0
  Se  Se7  1  0.51475600  0.01196800  0.97237500  1.0
