# generated using pymatgen
data_YAl2Pd5
_symmetry_space_group_name_H-M   'P 1'
_cell_length_a   4.15429600
_cell_length_b   4.15429600
_cell_length_c   8.05136081
_cell_angle_alpha   104.95066293
_cell_angle_beta   104.95066294
_cell_angle_gamma   89.99999998
_symmetry_Int_Tables_number   1
_chemical_formula_structural   YAl2Pd5
_chemical_formula_sum   'Y1 Al2 Pd5'
_cell_volume   129.37339101
_cell_formula_units_Z   1
loop_
 _symmetry_equiv_pos_site_id
 _symmetry_equiv_pos_as_xyz
  1  'x, y, z'
loop_
 _atom_site_type_symbol
 _atom_site_label
 _atom_site_symmetry_multiplicity
 _atom_site_fract_x
 _atom_site_fract_y
 _atom_site_fract_z
 _atom_site_occupancy
  Y  Y0  1  0.00000000  0.00000000  0.00000000  1.0
  Al  Al1  1  0.74680000  0.74680000  0.49360000  1.0
  Al  Al2  1  0.25320000  0.25320000  0.50640000  1.0
  Pd  Pd3  1  0.50000000  0.50000000  0.00000000  1.0
  Pd  Pd4  1  0.85541200  0.35541200  0.71082400  1.0
  Pd  Pd5  1  0.35541200  0.85541200  0.71082400  1.0
  Pd  Pd6  1  0.14458800  0.64458800  0.28917600  1.0
  Pd  Pd7  1  0.64458800  0.14458800  0.28917600  1.0
