# generated using pymatgen
data_Yb(Ni2As)2
_symmetry_space_group_name_H-M   'P 1'
_cell_length_a   3.74007400
_cell_length_b   7.20922800
_cell_length_c   7.20922800
_cell_angle_alpha   90.00000000
_cell_angle_beta   90.00000000
_cell_angle_gamma   90.00000000
_symmetry_Int_Tables_number   1
_chemical_formula_structural   Yb(Ni2As)2
_chemical_formula_sum   'Yb2 Ni8 As4'
_cell_volume   194.38274765
_cell_formula_units_Z   2
loop_
 _symmetry_equiv_pos_site_id
 _symmetry_equiv_pos_as_xyz
  1  'x, y, z'
loop_
 _atom_site_type_symbol
 _atom_site_label
 _atom_site_symmetry_multiplicity
 _atom_site_fract_x
 _atom_site_fract_y
 _atom_site_fract_z
 _atom_site_occupancy
  Yb  Yb0  1  1.00000000  0.50000000  0.50000000  1.0
  Yb  Yb1  1  0.50000000  0.00000000  0.00000000  1.0
  Ni  Ni2  1  0.50000000  0.58935600  0.15407700  1.0
  Ni  Ni3  1  0.50000000  0.41064400  0.84592300  1.0
  Ni  Ni4  1  1.00000000  0.08935600  0.34592300  1.0
  Ni  Ni5  1  1.00000000  0.91064400  0.65407700  1.0
  Ni  Ni6  1  0.50000000  0.15407700  0.58935600  1.0
  Ni  Ni7  1  0.50000000  0.84592300  0.41064400  1.0
  Ni  Ni8  1  1.00000000  0.34592300  0.08935600  1.0
  Ni  Ni9  1  1.00000000  0.65407700  0.91064400  1.0
  As  As10  1  0.50000000  0.71738600  0.71738600  1.0
  As  As11  1  0.50000000  0.28261400  0.28261400  1.0
  As  As12  1  0.00000000  0.21738600  0.78261400  1.0
  As  As13  1  0.00000000  0.78261400  0.21738600  1.0
