# generated using pymatgen
data_Yb2Si2O7
_symmetry_space_group_name_H-M   'P 1'
_cell_length_a   4.91147762
_cell_length_b   5.77562432
_cell_length_c   5.77562432
_cell_angle_alpha   72.87119153
_cell_angle_beta   82.76815452
_cell_angle_gamma   97.23184548
_symmetry_Int_Tables_number   1
_chemical_formula_structural   Yb2Si2O7
_chemical_formula_sum   'Yb2 Si2 O7'
_cell_volume   153.01193937
_cell_formula_units_Z   1
loop_
 _symmetry_equiv_pos_site_id
 _symmetry_equiv_pos_as_xyz
  1  'x, y, z'
loop_
 _atom_site_type_symbol
 _atom_site_label
 _atom_site_symmetry_multiplicity
 _atom_site_fract_x
 _atom_site_fract_y
 _atom_site_fract_z
 _atom_site_occupancy
  Yb  Yb0  1  0.00000000  0.30995000  0.30995000  1.0
  Yb  Yb1  1  0.00000000  0.69005000  0.69005000  1.0
  Si  Si2  1  0.39858200  0.22068400  0.77931600  1.0
  Si  Si3  1  0.60141800  0.77931600  0.22068400  1.0
  O  O4  1  0.21358300  0.37922100  0.90771100  1.0
  O  O5  1  0.78641700  0.90771100  0.37922100  1.0
  O  O6  1  0.21358300  0.09228900  0.62077900  1.0
  O  O7  1  0.78641700  0.62077900  0.09228900  1.0
  O  O8  1  0.50000000  0.00000000  0.00000000  1.0
  O  O9  1  0.30169900  0.63046500  0.36953500  1.0
  O  O10  1  0.69830100  0.36953500  0.63046500  1.0
