# generated using pymatgen
data_Yb3DySb3
_symmetry_space_group_name_H-M   'P 1'
_cell_length_a   8.11747671
_cell_length_b   8.11747671
_cell_length_c   8.17782606
_cell_angle_alpha   109.45863879
_cell_angle_beta   109.45863879
_cell_angle_gamma   109.09372441
_symmetry_Int_Tables_number   1
_chemical_formula_structural   Yb3DySb3
_chemical_formula_sum   'Yb6 Dy2 Sb6'
_cell_volume   416.86287623
_cell_formula_units_Z   2
loop_
 _symmetry_equiv_pos_site_id
 _symmetry_equiv_pos_as_xyz
  1  'x, y, z'
loop_
 _atom_site_type_symbol
 _atom_site_label
 _atom_site_symmetry_multiplicity
 _atom_site_fract_x
 _atom_site_fract_y
 _atom_site_fract_z
 _atom_site_occupancy
  Yb  Yb0  1  0.99908200  0.64095200  0.49523700  1.0
  Yb  Yb1  1  0.50428000  0.50425500  0.14844000  1.0
  Yb  Yb2  1  0.35548000  0.85158200  0.35665200  1.0
  Yb  Yb3  1  0.64095200  0.99908200  0.99523700  1.0
  Yb  Yb4  1  0.50425500  0.50428000  0.64844000  1.0
  Yb  Yb5  1  0.85158200  0.35548000  0.85665200  1.0
  Dy  Dy6  1  0.14483000  0.99967200  0.99950800  1.0
  Dy  Dy7  1  0.99967200  0.14483000  0.49950800  1.0
  Sb  Sb8  1  0.36652200  0.12621300  0.75026700  1.0
  Sb  Sb9  1  0.12621300  0.36652200  0.25026700  1.0
  Sb  Sb10  1  0.76001600  0.88149900  0.62879000  1.0
  Sb  Sb11  1  0.24339000  0.62222700  0.87110500  1.0
  Sb  Sb12  1  0.62222700  0.24339000  0.37110500  1.0
  Sb  Sb13  1  0.88149900  0.76001600  0.12879000  1.0
