# generated using pymatgen
data_YbAgGe
_symmetry_space_group_name_H-M   'P 1'
_cell_length_a   4.41290900
_cell_length_b   7.08662200
_cell_length_c   7.08662228
_cell_angle_alpha   119.99999870
_cell_angle_beta   90.00000000
_cell_angle_gamma   90.00000000
_symmetry_Int_Tables_number   1
_chemical_formula_structural   YbAgGe
_chemical_formula_sum   'Yb3 Ag3 Ge3'
_cell_volume   191.92615495
_cell_formula_units_Z   3
loop_
 _symmetry_equiv_pos_site_id
 _symmetry_equiv_pos_as_xyz
  1  'x, y, z'
loop_
 _atom_site_type_symbol
 _atom_site_label
 _atom_site_symmetry_multiplicity
 _atom_site_fract_x
 _atom_site_fract_y
 _atom_site_fract_z
 _atom_site_occupancy
  Yb  Yb0  1  1.00000000  0.00000000  0.57379700  1.0
  Yb  Yb1  1  1.00000000  0.57379700  1.00000000  1.0
  Yb  Yb2  1  1.00000000  0.42620300  0.42620300  1.0
  Ag  Ag3  1  0.50000000  0.75654200  0.75654200  1.0
  Ag  Ag4  1  0.50000000  0.24345800  1.00000000  1.0
  Ag  Ag5  1  0.50000000  0.00000000  0.24345800  1.0
  Ge  Ge6  1  0.00000000  0.00000000  0.00000000  1.0
  Ge  Ge7  1  0.50000000  0.33333333  0.66666667  1.0
  Ge  Ge8  1  0.50000000  0.66666667  0.33333333  1.0
