# generated using pymatgen
data_YbMoClO4
_symmetry_space_group_name_H-M   'P 1'
_cell_length_a   6.66875200
_cell_length_b   6.75041449
_cell_length_c   6.87106949
_cell_angle_alpha   102.10420908
_cell_angle_beta   90.00000000
_cell_angle_gamma   119.60062151
_symmetry_Int_Tables_number   1
_chemical_formula_structural   YbMoClO4
_chemical_formula_sum   'Yb2 Mo2 Cl2 O8'
_cell_volume   261.00700933
_cell_formula_units_Z   2
loop_
 _symmetry_equiv_pos_site_id
 _symmetry_equiv_pos_as_xyz
  1  'x, y, z'
loop_
 _atom_site_type_symbol
 _atom_site_label
 _atom_site_symmetry_multiplicity
 _atom_site_fract_x
 _atom_site_fract_y
 _atom_site_fract_z
 _atom_site_occupancy
  Yb  Yb0  1  0.28336000  0.56672000  0.65148000  1.0
  Yb  Yb1  1  0.71664000  0.43328000  0.34852000  1.0
  Mo  Mo2  1  0.63492600  0.26985200  0.76503400  1.0
  Mo  Mo3  1  0.36507400  0.73014800  0.23496600  1.0
  Cl  Cl4  1  0.98385100  0.96770200  0.85135900  1.0
  Cl  Cl5  1  0.01614900  0.03229800  0.14864100  1.0
  O  O6  1  0.46608700  0.34977200  0.62494700  1.0
  O  O7  1  0.88368500  0.34977200  0.62494700  1.0
  O  O8  1  0.48175000  0.96350000  0.75373900  1.0
  O  O9  1  0.28239600  0.56479200  0.98254700  1.0
  O  O10  1  0.71760400  0.43520800  0.01745300  1.0
  O  O11  1  0.51825000  0.03650000  0.24626100  1.0
  O  O12  1  0.11631500  0.65022800  0.37505300  1.0
  O  O13  1  0.53391300  0.65022800  0.37505300  1.0
