# generated using pymatgen
data_YbSm4S5
_symmetry_space_group_name_H-M   'P 1'
_cell_length_a   4.01595203
_cell_length_b   4.01595203
_cell_length_c   16.41416321
_cell_angle_alpha   82.97329019
_cell_angle_beta   82.97329019
_cell_angle_gamma   59.99999945
_symmetry_Int_Tables_number   1
_chemical_formula_structural   YbSm4S5
_chemical_formula_sum   'Yb1 Sm4 S5'
_cell_volume   226.96022415
_cell_formula_units_Z   1
loop_
 _symmetry_equiv_pos_site_id
 _symmetry_equiv_pos_as_xyz
  1  'x, y, z'
loop_
 _atom_site_type_symbol
 _atom_site_label
 _atom_site_symmetry_multiplicity
 _atom_site_fract_x
 _atom_site_fract_y
 _atom_site_fract_z
 _atom_site_occupancy
  Yb  Yb0  1  0.00000000  0.00000000  0.00000000  1.0
  Sm  Sm1  1  0.59878400  0.59878400  0.20364800  1.0
  Sm  Sm2  1  0.20118700  0.20118700  0.39643900  1.0
  Sm  Sm3  1  0.79881300  0.79881300  0.60356100  1.0
  Sm  Sm4  1  0.40121600  0.40121600  0.79635200  1.0
  S  S5  1  0.69926700  0.69926700  0.90219900  1.0
  S  S6  1  0.50000000  0.50000000  0.50000000  1.0
  S  S7  1  0.09990500  0.09990500  0.70028500  1.0
  S  S8  1  0.30073300  0.30073300  0.09780100  1.0
  S  S9  1  0.90009500  0.90009500  0.29971500  1.0
