# generated using pymatgen
data_YbTmS2
_symmetry_space_group_name_H-M   'P 1'
_cell_length_a   3.88155396
_cell_length_b   3.88155396
_cell_length_c   6.82553154
_cell_angle_alpha   73.48055274
_cell_angle_beta   73.48055274
_cell_angle_gamma   60.00000071
_symmetry_Int_Tables_number   1
_chemical_formula_structural   YbTmS2
_chemical_formula_sum   'Yb1 Tm1 S2'
_cell_volume   84.12199889
_cell_formula_units_Z   1
loop_
 _symmetry_equiv_pos_site_id
 _symmetry_equiv_pos_as_xyz
  1  'x, y, z'
loop_
 _atom_site_type_symbol
 _atom_site_label
 _atom_site_symmetry_multiplicity
 _atom_site_fract_x
 _atom_site_fract_y
 _atom_site_fract_z
 _atom_site_occupancy
  Yb  Yb0  1  0.00000000  0.00000000  0.00000000  1.0
  Tm  Tm1  1  0.50000000  0.50000000  0.50000000  1.0
  S  S2  1  0.24754500  0.24754500  0.25736500  1.0
  S  S3  1  0.75245500  0.75245500  0.74263500  1.0
