# generated using pymatgen
data_YCu2Bi2(SeO2)2
_symmetry_space_group_name_H-M   'P 1'
_cell_length_a   3.90326600
_cell_length_b   3.90326600
_cell_length_c   12.78886232
_cell_angle_alpha   98.77786905
_cell_angle_beta   98.77786905
_cell_angle_gamma   89.99999999
_symmetry_Int_Tables_number   1
_chemical_formula_structural   YCu2Bi2(SeO2)2
_chemical_formula_sum   'Y1 Cu2 Bi2 Se2 O4'
_cell_volume   190.25288103
_cell_formula_units_Z   1
loop_
 _symmetry_equiv_pos_site_id
 _symmetry_equiv_pos_as_xyz
  1  'x, y, z'
loop_
 _atom_site_type_symbol
 _atom_site_label
 _atom_site_symmetry_multiplicity
 _atom_site_fract_x
 _atom_site_fract_y
 _atom_site_fract_z
 _atom_site_occupancy
  Y  Y0  1  0.00000000  0.00000000  0.00000000  1.0
  Cu  Cu1  1  0.75000000  0.25000000  0.50000000  1.0
  Cu  Cu2  1  0.25000000  0.75000000  0.50000000  1.0
  Bi  Bi3  1  0.39906300  0.39906300  0.79812600  1.0
  Bi  Bi4  1  0.60093700  0.60093700  0.20187400  1.0
  Se  Se5  1  0.81054000  0.81054000  0.62108000  1.0
  Se  Se6  1  0.18946000  0.18946000  0.37892000  1.0
  O  O7  1  0.05575100  0.55575100  0.11150200  1.0
  O  O8  1  0.44424900  0.94424900  0.88849800  1.0
  O  O9  1  0.55575100  0.05575100  0.11150200  1.0
  O  O10  1  0.94424900  0.44424900  0.88849800  1.0
