# generated using pymatgen
data_YCu2
_symmetry_space_group_name_H-M   'P 1'
_cell_length_a   4.26863200
_cell_length_b   5.44497956
_cell_length_c   5.44497956
_cell_angle_alpha   78.58852632
_cell_angle_beta   66.92232408
_cell_angle_gamma   66.92232407
_symmetry_Int_Tables_number   1
_chemical_formula_structural   YCu2
_chemical_formula_sum   'Y2 Cu4'
_cell_volume   106.96443219
_cell_formula_units_Z   2
loop_
 _symmetry_equiv_pos_site_id
 _symmetry_equiv_pos_as_xyz
  1  'x, y, z'
loop_
 _atom_site_type_symbol
 _atom_site_label
 _atom_site_symmetry_multiplicity
 _atom_site_fract_x
 _atom_site_fract_y
 _atom_site_fract_z
 _atom_site_occupancy
  Y  Y0  1  0.46021700  0.28978300  0.78978300  1.0
  Y  Y1  1  0.53978300  0.71021700  0.21021700  1.0
  Cu  Cu2  1  0.83546000  0.71434500  0.61473500  1.0
  Cu  Cu3  1  0.16454000  0.28565500  0.38526500  1.0
  Cu  Cu4  1  0.16453900  0.88526500  0.78565600  1.0
  Cu  Cu5  1  0.83546100  0.11473500  0.21434400  1.0
