# generated using pymatgen
data_YInRh
_symmetry_space_group_name_H-M   'P 1'
_cell_length_a   3.96200200
_cell_length_b   7.53550600
_cell_length_c   7.53550632
_cell_angle_alpha   119.99999858
_cell_angle_beta   90.00000000
_cell_angle_gamma   90.00000000
_symmetry_Int_Tables_number   1
_chemical_formula_structural   YInRh
_chemical_formula_sum   'Y3 In3 Rh3'
_cell_volume   194.83644039
_cell_formula_units_Z   3
loop_
 _symmetry_equiv_pos_site_id
 _symmetry_equiv_pos_as_xyz
  1  'x, y, z'
loop_
 _atom_site_type_symbol
 _atom_site_label
 _atom_site_symmetry_multiplicity
 _atom_site_fract_x
 _atom_site_fract_y
 _atom_site_fract_z
 _atom_site_occupancy
  Y  Y0  1  0.50000000  0.00000000  0.59287800  1.0
  Y  Y1  1  0.50000000  0.59287800  0.00000000  1.0
  Y  Y2  1  0.50000000  0.40712200  0.40712200  1.0
  In  In3  1  0.00000000  0.00000000  0.25608800  1.0
  In  In4  1  0.00000000  0.74391200  0.74391200  1.0
  In  In5  1  1.00000000  0.25608800  0.00000000  1.0
  Rh  Rh6  1  1.00000000  0.66666667  0.33333333  1.0
  Rh  Rh7  1  0.50000000  0.00000000  0.00000000  1.0
  Rh  Rh8  1  1.00000000  0.33333333  0.66666667  1.0
