# generated using pymatgen
data_YSnGe
_symmetry_space_group_name_H-M   'P 1'
_cell_length_a   4.10424200
_cell_length_b   4.26383800
_cell_length_c   8.48309727
_cell_angle_alpha   104.55526685
_cell_angle_beta   90.00000000
_cell_angle_gamma   90.00000000
_symmetry_Int_Tables_number   1
_chemical_formula_structural   YSnGe
_chemical_formula_sum   'Y2 Sn2 Ge2'
_cell_volume   143.68821170
_cell_formula_units_Z   2
loop_
 _symmetry_equiv_pos_site_id
 _symmetry_equiv_pos_as_xyz
  1  'x, y, z'
loop_
 _atom_site_type_symbol
 _atom_site_label
 _atom_site_symmetry_multiplicity
 _atom_site_fract_x
 _atom_site_fract_y
 _atom_site_fract_z
 _atom_site_occupancy
  Y  Y0  1  0.75000000  0.59449300  0.18898600  1.0
  Y  Y1  1  0.25000000  0.40550700  0.81101400  1.0
  Sn  Sn2  1  0.75000000  0.24521200  0.49042400  1.0
  Sn  Sn3  1  0.25000000  0.75478800  0.50957600  1.0
  Ge  Ge4  1  0.75000000  0.94652500  0.89305000  1.0
  Ge  Ge5  1  0.25000000  0.05347500  0.10695000  1.0
