# generated using pymatgen
data_Zn(MoO2)2
_symmetry_space_group_name_H-M   'P 1'
_cell_length_a   6.19932671
_cell_length_b   6.19922521
_cell_length_c   6.19993867
_cell_angle_alpha   117.44823763
_cell_angle_beta   117.44975739
_cell_angle_gamma   62.55693089
_symmetry_Int_Tables_number   1
_chemical_formula_structural   Zn(MoO2)2
_chemical_formula_sum   'Zn2 Mo4 O8'
_cell_volume   178.06410723
_cell_formula_units_Z   2
loop_
 _symmetry_equiv_pos_site_id
 _symmetry_equiv_pos_as_xyz
  1  'x, y, z'
loop_
 _atom_site_type_symbol
 _atom_site_label
 _atom_site_symmetry_multiplicity
 _atom_site_fract_x
 _atom_site_fract_y
 _atom_site_fract_z
 _atom_site_occupancy
  Zn  Zn0  1  0.87733700  0.87739300  0.12262800  1.0
  Zn  Zn1  1  0.12188300  0.12188400  0.87812700  1.0
  Mo  Mo2  1  0.49985400  0.49982900  0.00001500  1.0
  Mo  Mo3  1  0.99999400  0.49982900  0.50015000  1.0
  Mo  Mo4  1  0.49985000  0.99998600  0.50016000  1.0
  Mo  Mo5  1  0.50023400  0.50026700  0.49978300  1.0
  O  O6  1  0.73243500  0.25543300  0.74462000  1.0
  O  O7  1  0.25543100  0.73243700  0.74461600  1.0
  O  O8  1  0.25794400  0.25784300  0.74204900  1.0
  O  O9  1  0.74544100  0.74542400  0.73300100  1.0
  O  O10  1  0.74188100  0.74187900  0.25814300  1.0
  O  O11  1  0.74534000  0.26703000  0.25459100  1.0
  O  O12  1  0.25538300  0.25539200  0.26757400  1.0
  O  O13  1  0.26699300  0.74537600  0.25454300  1.0
