# generated using pymatgen
data_Zn2GaAgSe4
_symmetry_space_group_name_H-M   'P 1'
_cell_length_a   4.08502826
_cell_length_b   6.78496468
_cell_length_c   7.19859115
_cell_angle_alpha   90.15996041
_cell_angle_beta   89.99908307
_cell_angle_gamma   90.00025701
_symmetry_Int_Tables_number   1
_chemical_formula_structural   Zn2GaAgSe4
_chemical_formula_sum   'Zn2 Ga1 Ag1 Se4'
_cell_volume   199.52093535
_cell_formula_units_Z   1
loop_
 _symmetry_equiv_pos_site_id
 _symmetry_equiv_pos_as_xyz
  1  'x, y, z'
loop_
 _atom_site_type_symbol
 _atom_site_label
 _atom_site_symmetry_multiplicity
 _atom_site_fract_x
 _atom_site_fract_y
 _atom_site_fract_z
 _atom_site_occupancy
  Zn  Zn0  1  0.50000700  0.48508600  0.16644200  1.0
  Zn  Zn1  1  0.99999600  0.01445200  0.32650500  1.0
  Ga  Ga2  1  0.49999700  0.01449300  0.84210100  1.0
  Ag  Ag3  1  0.00000100  0.49605200  0.66295700  1.0
  Se  Se4  1  0.00000400  0.88806000  0.66809000  1.0
  Se  Se5  1  0.50000200  0.86688500  0.16407100  1.0
  Se  Se6  1  0.49999300  0.36524700  0.84799800  1.0
  Se  Se7  1  0.00000100  0.37372500  0.32183600  1.0
