# generated using pymatgen
data_Zn2InAgTe4
_symmetry_space_group_name_H-M   'P 1'
_cell_length_a   6.37895900
_cell_length_b   6.37895900
_cell_length_c   7.78479272
_cell_angle_alpha   114.18639749
_cell_angle_beta   114.18638940
_cell_angle_gamma   90.00000000
_symmetry_Int_Tables_number   1
_chemical_formula_structural   Zn2InAgTe4
_chemical_formula_sum   'Zn2 In1 Ag1 Te4'
_cell_volume   258.18005677
_cell_formula_units_Z   1
loop_
 _symmetry_equiv_pos_site_id
 _symmetry_equiv_pos_as_xyz
  1  'x, y, z'
loop_
 _atom_site_type_symbol
 _atom_site_label
 _atom_site_symmetry_multiplicity
 _atom_site_fract_x
 _atom_site_fract_y
 _atom_site_fract_z
 _atom_site_occupancy
  Zn  Zn0  1  0.25000000  0.75000000  0.50000000  1.0
  Zn  Zn1  1  0.75000000  0.25000000  0.50000000  1.0
  In  In2  1  0.50000000  0.50000000  1.00000000  1.0
  Ag  Ag3  1  0.00000000  0.00000000  0.00000000  1.0
  Te  Te4  1  0.37964300  0.37964200  0.26587400  1.0
  Te  Te5  1  0.62035700  0.11376900  0.73412600  1.0
  Te  Te6  1  0.88623200  0.88623100  0.26587400  1.0
  Te  Te7  1  0.11376800  0.62035800  0.73412600  1.0
