# generated using pymatgen
data_Zn2Ni3O5
_symmetry_space_group_name_H-M   'P 1'
_cell_length_a   4.26075200
_cell_length_b   5.21485767
_cell_length_c   5.23748376
_cell_angle_alpha   80.19785932
_cell_angle_beta   65.99880928
_cell_angle_gamma   65.88807443
_symmetry_Int_Tables_number   1
_chemical_formula_structural   Zn2Ni3O5
_chemical_formula_sum   'Zn2 Ni3 O5'
_cell_volume   97.03396996
_cell_formula_units_Z   1
loop_
 _symmetry_equiv_pos_site_id
 _symmetry_equiv_pos_as_xyz
  1  'x, y, z'
loop_
 _atom_site_type_symbol
 _atom_site_label
 _atom_site_symmetry_multiplicity
 _atom_site_fract_x
 _atom_site_fract_y
 _atom_site_fract_z
 _atom_site_occupancy
  Zn  Zn0  1  0.59911400  0.60147800  0.20029400  1.0
  Zn  Zn1  1  0.40088600  0.39852200  0.79970600  1.0
  Ni  Ni2  1  0.00000000  0.00000000  0.00000000  1.0
  Ni  Ni3  1  0.79942700  0.80160000  0.59954600  1.0
  Ni  Ni4  1  0.20057300  0.19840000  0.40045400  1.0
  O  O5  1  0.09441500  0.60389900  0.20727100  1.0
  O  O6  1  0.50000000  1.00000000  0.00000000  1.0
  O  O7  1  0.29360800  0.80680700  0.60597700  1.0
  O  O8  1  0.90558500  0.39610100  0.79272900  1.0
  O  O9  1  0.70639200  0.19319300  0.39402300  1.0
