# generated using pymatgen
data_Zn2SbN3
_symmetry_space_group_name_H-M   'P 1'
_cell_length_a   5.46726600
_cell_length_b   5.82448400
_cell_length_c   5.83233012
_cell_angle_alpha   60.04449157
_cell_angle_beta   90.00000000
_cell_angle_gamma   90.00000000
_symmetry_Int_Tables_number   1
_chemical_formula_structural   Zn2SbN3
_chemical_formula_sum   'Zn4 Sb2 N6'
_cell_volume   160.91440411
_cell_formula_units_Z   2
loop_
 _symmetry_equiv_pos_site_id
 _symmetry_equiv_pos_as_xyz
  1  'x, y, z'
loop_
 _atom_site_type_symbol
 _atom_site_label
 _atom_site_symmetry_multiplicity
 _atom_site_fract_x
 _atom_site_fract_y
 _atom_site_fract_z
 _atom_site_occupancy
  Zn  Zn0  1  0.02679500  0.16536400  0.34429900  1.0
  Zn  Zn1  1  0.02679500  0.50966300  0.65570100  1.0
  Zn  Zn2  1  0.52679500  0.83463600  0.65570100  1.0
  Zn  Zn3  1  0.52679500  0.49033700  0.34429900  1.0
  Sb  Sb4  1  0.53841200  0.17804300  0.00000000  1.0
  Sb  Sb5  1  0.03841200  0.82195700  0.00000000  1.0
  N  N6  1  0.65170400  0.16744600  0.32987300  1.0
  N  N7  1  0.65170400  0.49731900  0.67012700  1.0
  N  N8  1  0.15170400  0.83255400  0.67012700  1.0
  N  N9  1  0.15170400  0.50268100  0.32987300  1.0
  N  N10  1  0.16020900  0.15819600  0.00000000  1.0
  N  N11  1  0.66020900  0.84180400  1.00000000  1.0
