# generated using pymatgen
data_ZnAg2GeO4
_symmetry_space_group_name_H-M   'P 1'
_cell_length_a   5.63768400
_cell_length_b   5.68643600
_cell_length_c   7.20325921
_cell_angle_alpha   90.00000000
_cell_angle_beta   90.57140354
_cell_angle_gamma   90.00000000
_symmetry_Int_Tables_number   1
_chemical_formula_structural   ZnAg2GeO4
_chemical_formula_sum   'Zn2 Ag4 Ge2 O8'
_cell_volume   230.91297188
_cell_formula_units_Z   2
loop_
 _symmetry_equiv_pos_site_id
 _symmetry_equiv_pos_as_xyz
  1  'x, y, z'
loop_
 _atom_site_type_symbol
 _atom_site_label
 _atom_site_symmetry_multiplicity
 _atom_site_fract_x
 _atom_site_fract_y
 _atom_site_fract_z
 _atom_site_occupancy
  Zn  Zn0  1  0.50055000  0.18884900  0.49885200  1.0
  Zn  Zn1  1  0.00055000  0.81115100  0.99885200  1.0
  Ag  Ag2  1  0.99379500  0.80505900  0.50392700  1.0
  Ag  Ag3  1  0.49379500  0.19494100  0.00392700  1.0
  Ag  Ag4  1  0.50438300  0.69507200  0.24318800  1.0
  Ag  Ag5  1  0.00438300  0.30492800  0.74318800  1.0
  Ge  Ge6  1  0.99901700  0.31336600  0.24950300  1.0
  Ge  Ge7  1  0.49901700  0.68663400  0.74950300  1.0
  O  O8  1  0.18704200  0.70672700  0.78326600  1.0
  O  O9  1  0.68704200  0.29327300  0.28326600  1.0
  O  O10  1  0.15292900  0.20288000  0.44857900  1.0
  O  O11  1  0.65292900  0.79712000  0.94857900  1.0
  O  O12  1  0.58083300  0.38578200  0.71796400  1.0
  O  O13  1  0.57545100  0.85116200  0.54672200  1.0
  O  O14  1  0.08083300  0.61421800  0.21796400  1.0
  O  O15  1  0.07545100  0.14883800  0.04672200  1.0
