# generated using pymatgen
data_ZnCrF6
_symmetry_space_group_name_H-M   'P 1'
_cell_length_a   5.17644624
_cell_length_b   5.17644624
_cell_length_c   5.43037273
_cell_angle_alpha   61.53512734
_cell_angle_beta   61.53512734
_cell_angle_gamma   59.99999691
_symmetry_Int_Tables_number   1
_chemical_formula_structural   ZnCrF6
_chemical_formula_sum   'Zn1 Cr1 F6'
_cell_volume   105.21429386
_cell_formula_units_Z   1
loop_
 _symmetry_equiv_pos_site_id
 _symmetry_equiv_pos_as_xyz
  1  'x, y, z'
loop_
 _atom_site_type_symbol
 _atom_site_label
 _atom_site_symmetry_multiplicity
 _atom_site_fract_x
 _atom_site_fract_y
 _atom_site_fract_z
 _atom_site_occupancy
  Zn  Zn0  1  0.00000000  0.00000000  0.00000000  1.0
  Cr  Cr1  1  0.50000000  0.50000000  0.50000000  1.0
  F  F2  1  0.73518900  0.15534500  0.73807900  1.0
  F  F3  1  0.15534500  0.37138700  0.73807900  1.0
  F  F4  1  0.37138700  0.73518900  0.73807900  1.0
  F  F5  1  0.62861300  0.26481100  0.26192100  1.0
  F  F6  1  0.84465500  0.62861300  0.26192100  1.0
  F  F7  1  0.26481100  0.84465500  0.26192100  1.0
