# generated using pymatgen
data_ZnCuP2O7
_symmetry_space_group_name_H-M   'P 1'
_cell_length_a   4.61465236
_cell_length_b   5.38203994
_cell_length_c   5.38203994
_cell_angle_alpha   100.46269952
_cell_angle_beta   101.66748758
_cell_angle_gamma   101.66748758
_symmetry_Int_Tables_number   1
_chemical_formula_structural   ZnCuP2O7
_chemical_formula_sum   'Zn1 Cu1 P2 O7'
_cell_volume   124.70556565
_cell_formula_units_Z   1
loop_
 _symmetry_equiv_pos_site_id
 _symmetry_equiv_pos_as_xyz
  1  'x, y, z'
loop_
 _atom_site_type_symbol
 _atom_site_label
 _atom_site_symmetry_multiplicity
 _atom_site_fract_x
 _atom_site_fract_y
 _atom_site_fract_z
 _atom_site_occupancy
  Zn  Zn0  1  0.50000000  0.69059500  0.30940500  1.0
  Cu  Cu1  1  0.50000000  0.31040400  0.68959600  1.0
  P  P2  1  0.90844700  0.19621000  0.21038300  1.0
  P  P3  1  0.09155300  0.78961700  0.80379000  1.0
  O  O4  1  0.73560900  0.34924700  0.04746700  1.0
  O  O5  1  0.71987400  0.06413200  0.37400500  1.0
  O  O6  1  0.28012600  0.62599500  0.93586800  1.0
  O  O7  1  0.26439100  0.95253300  0.65075300  1.0
  O  O8  1  0.21871200  0.37625400  0.38014300  1.0
  O  O9  1  0.78128800  0.61985700  0.62374600  1.0
  O  O10  1  1.00000000  0.96835500  0.03164500  1.0
