# generated using pymatgen
data_ZnCu2SnTe4
_symmetry_space_group_name_H-M   'P 1'
_cell_length_a   6.16532200
_cell_length_b   6.16532200
_cell_length_c   7.57062377
_cell_angle_alpha   114.02826035
_cell_angle_beta   114.02826036
_cell_angle_gamma   89.99999999
_symmetry_Int_Tables_number   1
_chemical_formula_structural   ZnCu2SnTe4
_chemical_formula_sum   'Zn1 Cu2 Sn1 Te4'
_cell_volume   235.26672032
_cell_formula_units_Z   1
loop_
 _symmetry_equiv_pos_site_id
 _symmetry_equiv_pos_as_xyz
  1  'x, y, z'
loop_
 _atom_site_type_symbol
 _atom_site_label
 _atom_site_symmetry_multiplicity
 _atom_site_fract_x
 _atom_site_fract_y
 _atom_site_fract_z
 _atom_site_occupancy
  Zn  Zn0  1  0.00000000  0.00000000  0.00000000  1.0
  Cu  Cu1  1  0.75000000  0.25000000  0.50000000  1.0
  Cu  Cu2  1  0.25000000  0.75000000  0.50000000  1.0
  Sn  Sn3  1  0.50000000  0.50000000  0.00000000  1.0
  Te  Te4  1  0.89774000  0.89774000  0.27426800  1.0
  Te  Te5  1  0.37652800  0.37652800  0.27426800  1.0
  Te  Te6  1  0.10226000  0.62347200  0.72573200  1.0
  Te  Te7  1  0.62347200  0.10226000  0.72573200  1.0
