# generated using pymatgen
data_ZnCu2SiSe4
_symmetry_space_group_name_H-M   'P 1'
_cell_length_a   5.61931200
_cell_length_b   5.61931200
_cell_length_c   6.82981802
_cell_angle_alpha   114.29160404
_cell_angle_beta   114.29160404
_cell_angle_gamma   89.99999999
_symmetry_Int_Tables_number   1
_chemical_formula_structural   ZnCu2SiSe4
_chemical_formula_sum   'Zn1 Cu2 Si1 Se4'
_cell_volume   175.40854479
_cell_formula_units_Z   1
loop_
 _symmetry_equiv_pos_site_id
 _symmetry_equiv_pos_as_xyz
  1  'x, y, z'
loop_
 _atom_site_type_symbol
 _atom_site_label
 _atom_site_symmetry_multiplicity
 _atom_site_fract_x
 _atom_site_fract_y
 _atom_site_fract_z
 _atom_site_occupancy
  Zn  Zn0  1  0.75000000  0.25000000  0.50000000  1.0
  Cu  Cu1  1  0.00000000  0.00000000  0.00000000  1.0
  Cu  Cu2  1  0.25000000  0.75000000  0.50000000  1.0
  Si  Si3  1  0.50000000  0.50000000  0.00000000  1.0
  Se  Se4  1  0.14286500  0.62473000  0.75838700  1.0
  Se  Se5  1  0.61552200  0.13365700  0.75838700  1.0
  Se  Se6  1  0.86634300  0.85713500  0.24161300  1.0
  Se  Se7  1  0.37527000  0.38447800  0.24161300  1.0
