# generated using pymatgen
data_ZnGaCuSe3
_symmetry_space_group_name_H-M   'P 1'
_cell_length_a   4.01464000
_cell_length_b   5.69257522
_cell_length_c   6.95133038
_cell_angle_alpha   114.15242730
_cell_angle_beta   106.78419711
_cell_angle_gamma   90.00000000
_symmetry_Int_Tables_number   1
_chemical_formula_structural   ZnGaCuSe3
_chemical_formula_sum   'Zn1 Ga1 Cu1 Se3'
_cell_volume   137.50587484
_cell_formula_units_Z   1
loop_
 _symmetry_equiv_pos_site_id
 _symmetry_equiv_pos_as_xyz
  1  'x, y, z'
loop_
 _atom_site_type_symbol
 _atom_site_label
 _atom_site_symmetry_multiplicity
 _atom_site_fract_x
 _atom_site_fract_y
 _atom_site_fract_z
 _atom_site_occupancy
  Zn  Zn0  1  0.66367400  0.66465200  0.32734800  1.0
  Ga  Ga1  1  0.33563600  0.32493800  0.67127200  1.0
  Cu  Cu2  1  0.00018300  0.00644500  0.00036600  1.0
  Se  Se3  1  0.49956000  0.24341400  0.99912000  1.0
  Se  Se4  1  0.16447500  0.92130800  0.32895000  1.0
  Se  Se5  1  0.83646900  0.58924300  0.67293800  1.0
