# generated using pymatgen
data_ZnWO4
_symmetry_space_group_name_H-M   'P 1'
_cell_length_a   4.88081435
_cell_length_b   4.90868123
_cell_length_c   7.42901262
_cell_angle_alpha   107.06829478
_cell_angle_beta   106.94331081
_cell_angle_gamma   96.44279340
_symmetry_Int_Tables_number   1
_chemical_formula_structural   ZnWO4
_chemical_formula_sum   'Zn2 W2 O8'
_cell_volume   158.91103533
_cell_formula_units_Z   2
loop_
 _symmetry_equiv_pos_site_id
 _symmetry_equiv_pos_as_xyz
  1  'x, y, z'
loop_
 _atom_site_type_symbol
 _atom_site_label
 _atom_site_symmetry_multiplicity
 _atom_site_fract_x
 _atom_site_fract_y
 _atom_site_fract_z
 _atom_site_occupancy
  Zn  Zn0  1  0.13463100  0.38463100  0.76926200  1.0
  Zn  Zn1  1  0.86536900  0.61536900  0.23073800  1.0
  W  W2  1  0.66729400  0.91729400  0.83458800  1.0
  W  W3  1  0.33270600  0.08270600  0.16541200  1.0
  O  O4  1  0.61706800  0.40295900  0.33384300  1.0
  O  O5  1  0.99672400  0.73626400  0.91289700  1.0
  O  O6  1  0.78322500  0.06911600  0.66615700  1.0
  O  O7  1  0.58382700  0.82336700  0.08710300  1.0
  O  O8  1  0.38293200  0.59704100  0.66615700  1.0
  O  O9  1  0.21677500  0.93088400  0.33384300  1.0
  O  O10  1  0.00327600  0.26373600  0.08710300  1.0
  O  O11  1  0.41617300  0.17663300  0.91289700  1.0
