# generated using pymatgen
data_Zr10(GaSb)3
_symmetry_space_group_name_H-M   'P 1'
_cell_length_a   5.72131900
_cell_length_b   8.37106202
_cell_length_c   8.37106225
_cell_angle_alpha   119.99286182
_cell_angle_beta   89.99836814
_cell_angle_gamma   89.99837425
_symmetry_Int_Tables_number   1
_chemical_formula_structural   Zr10(GaSb)3
_chemical_formula_sum   'Zr10 Ga3 Sb3'
_cell_volume   347.23153409
_cell_formula_units_Z   1
loop_
 _symmetry_equiv_pos_site_id
 _symmetry_equiv_pos_as_xyz
  1  'x, y, z'
loop_
 _atom_site_type_symbol
 _atom_site_label
 _atom_site_symmetry_multiplicity
 _atom_site_fract_x
 _atom_site_fract_y
 _atom_site_fract_z
 _atom_site_occupancy
  Zr  Zr0  1  0.49376900  0.66666667  0.33333333  1.0
  Zr  Zr1  1  0.49376900  0.33333333  0.66666667  1.0
  Zr  Zr2  1  0.00622500  0.33333333  0.66666667  1.0
  Zr  Zr3  1  0.00622500  0.66666667  0.33333333  1.0
  Zr  Zr4  1  0.24997600  0.74996900  0.74996900  1.0
  Zr  Zr5  1  0.24997200  0.25015300  0.00000800  1.0
  Zr  Zr6  1  0.24997200  0.00000800  0.25015300  1.0
  Zr  Zr7  1  0.75002900  0.25005900  0.25005900  1.0
  Zr  Zr8  1  0.75001900  0.74991400  0.99997900  1.0
  Zr  Zr9  1  0.75001900  0.99997900  0.74991400  1.0
  Ga  Ga10  1  0.24999500  0.38769500  0.38769500  1.0
  Ga  Ga11  1  0.24998600  0.61225200  0.00001900  1.0
  Ga  Ga12  1  0.24998600  0.00001900  0.61225200  1.0
  Sb  Sb13  1  0.75001900  0.60813600  0.60813600  1.0
  Sb  Sb14  1  0.75002000  0.39183200  0.00001000  1.0
  Sb  Sb15  1  0.75002000  0.00001000  0.39183200  1.0
