# generated using pymatgen
data_Zr2Cu
_symmetry_space_group_name_H-M   'P 1'
_cell_length_a   3.30103800
_cell_length_b   5.63310512
_cell_length_c   6.89017032
_cell_angle_alpha   78.71170349
_cell_angle_beta   76.14019991
_cell_angle_gamma   72.96214845
_symmetry_Int_Tables_number   1
_chemical_formula_structural   Zr2Cu
_chemical_formula_sum   'Zr4 Cu2'
_cell_volume   117.84061746
_cell_formula_units_Z   2
loop_
 _symmetry_equiv_pos_site_id
 _symmetry_equiv_pos_as_xyz
  1  'x, y, z'
loop_
 _atom_site_type_symbol
 _atom_site_label
 _atom_site_symmetry_multiplicity
 _atom_site_fract_x
 _atom_site_fract_y
 _atom_site_fract_z
 _atom_site_occupancy
  Zr  Zr0  1  0.07957400  0.68422300  0.15662900  1.0
  Zr  Zr1  1  0.92042600  0.31577700  0.84337100  1.0
  Zr  Zr2  1  0.65845700  0.24268500  0.44040100  1.0
  Zr  Zr3  1  0.34154300  0.75731500  0.55959900  1.0
  Cu  Cu4  1  0.36970500  0.10571600  0.15487400  1.0
  Cu  Cu5  1  0.63029500  0.89428400  0.84512600  1.0
