# generated using pymatgen
data_Zr2Cd
_symmetry_space_group_name_H-M   'P 1'
_cell_length_a   3.12708400
_cell_length_b   3.12708400
_cell_length_c   7.26467139
_cell_angle_alpha   102.42875293
_cell_angle_beta   102.42875293
_cell_angle_gamma   89.99999999
_symmetry_Int_Tables_number   1
_chemical_formula_structural   Zr2Cd
_chemical_formula_sum   'Zr2 Cd1'
_cell_volume   67.66809253
_cell_formula_units_Z   1
loop_
 _symmetry_equiv_pos_site_id
 _symmetry_equiv_pos_as_xyz
  1  'x, y, z'
loop_
 _atom_site_type_symbol
 _atom_site_label
 _atom_site_symmetry_multiplicity
 _atom_site_fract_x
 _atom_site_fract_y
 _atom_site_fract_z
 _atom_site_occupancy
  Zr  Zr0  1  0.66819000  0.66819000  0.33638000  1.0
  Zr  Zr1  1  0.33181000  0.33181000  0.66362000  1.0
  Cd  Cd2  1  0.00000000  0.00000000  0.00000000  1.0
