# generated using pymatgen
data_Zr2Ga3Cu
_symmetry_space_group_name_H-M   'P 1'
_cell_length_a   4.16763800
_cell_length_b   5.39342252
_cell_length_c   5.42379847
_cell_angle_alpha   75.04463562
_cell_angle_beta   67.40596575
_cell_angle_gamma   67.27161584
_symmetry_Int_Tables_number   1
_chemical_formula_structural   Zr2Ga3Cu
_chemical_formula_sum   'Zr2 Ga3 Cu1'
_cell_volume   102.95387859
_cell_formula_units_Z   1
loop_
 _symmetry_equiv_pos_site_id
 _symmetry_equiv_pos_as_xyz
  1  'x, y, z'
loop_
 _atom_site_type_symbol
 _atom_site_label
 _atom_site_symmetry_multiplicity
 _atom_site_fract_x
 _atom_site_fract_y
 _atom_site_fract_z
 _atom_site_occupancy
  Zr  Zr0  1  0.53977300  0.71717100  0.20328300  1.0
  Zr  Zr1  1  0.45741900  0.29540000  0.78976200  1.0
  Ga  Ga2  1  0.84986900  0.68436100  0.61590100  1.0
  Ga  Ga3  1  0.82590000  0.13895600  0.20924400  1.0
  Ga  Ga4  1  0.16013900  0.88484800  0.79487400  1.0
  Cu  Cu5  1  0.16689900  0.27926600  0.38693600  1.0
