# generated using pymatgen
data_Zr3Bi
_symmetry_space_group_name_H-M   'P 1'
_cell_length_a   5.31316500
_cell_length_b   6.36509200
_cell_length_c   6.36509255
_cell_angle_alpha   60.00000284
_cell_angle_beta   90.00000000
_cell_angle_gamma   90.00000000
_symmetry_Int_Tables_number   1
_chemical_formula_structural   Zr3Bi
_chemical_formula_sum   'Zr6 Bi2'
_cell_volume   186.42036567
_cell_formula_units_Z   2
loop_
 _symmetry_equiv_pos_site_id
 _symmetry_equiv_pos_as_xyz
  1  'x, y, z'
loop_
 _atom_site_type_symbol
 _atom_site_label
 _atom_site_symmetry_multiplicity
 _atom_site_fract_x
 _atom_site_fract_y
 _atom_site_fract_z
 _atom_site_occupancy
  Zr  Zr0  1  0.75000000  0.67387900  0.16306100  1.0
  Zr  Zr1  1  0.75000000  0.16306000  0.16306100  1.0
  Zr  Zr2  1  0.75000000  0.16306000  0.67388000  1.0
  Zr  Zr3  1  0.25000000  0.32612100  0.83693900  1.0
  Zr  Zr4  1  0.25000000  0.83694000  0.83693900  1.0
  Zr  Zr5  1  0.25000000  0.83694000  0.32612000  1.0
  Bi  Bi6  1  0.25000000  0.33333333  0.33333333  1.0
  Bi  Bi7  1  0.75000000  0.66666667  0.66666667  1.0
