# generated using pymatgen
data_Zr3Fe8Mo
_symmetry_space_group_name_H-M   'P 1'
_cell_length_a   4.92158183
_cell_length_b   4.92158183
_cell_length_c   8.53488259
_cell_angle_alpha   73.24251151
_cell_angle_beta   73.24251151
_cell_angle_gamma   60.00000220
_symmetry_Int_Tables_number   1
_chemical_formula_structural   Zr3Fe8Mo
_chemical_formula_sum   'Zr3 Fe8 Mo1'
_cell_volume   168.82152509
_cell_formula_units_Z   1
loop_
 _symmetry_equiv_pos_site_id
 _symmetry_equiv_pos_as_xyz
  1  'x, y, z'
loop_
 _atom_site_type_symbol
 _atom_site_label
 _atom_site_symmetry_multiplicity
 _atom_site_fract_x
 _atom_site_fract_y
 _atom_site_fract_z
 _atom_site_occupancy
  Zr  Zr0  1  0.62458400  0.62458400  0.12624800  1.0
  Zr  Zr1  1  0.00290700  0.00290700  0.99127900  1.0
  Zr  Zr2  1  0.49744000  0.49744000  0.50768000  1.0
  Fe  Fe3  1  0.06349400  0.56423700  0.80803200  1.0
  Fe  Fe4  1  0.56000600  0.06166400  0.31666600  1.0
  Fe  Fe5  1  0.56423700  0.06349400  0.80803200  1.0
  Fe  Fe6  1  0.06166400  0.56000600  0.31666600  1.0
  Fe  Fe7  1  0.81204600  0.81204600  0.56386200  1.0
  Fe  Fe8  1  0.31274200  0.31274200  0.06177400  1.0
  Fe  Fe9  1  0.56423700  0.56423700  0.80803200  1.0
  Fe  Fe10  1  0.06166400  0.06166400  0.31666600  1.0
  Mo  Mo11  1  0.12497900  0.12497900  0.62506300  1.0
