# generated using pymatgen
data_Zr3Ir
_symmetry_space_group_name_H-M   'P 1'
_cell_length_a   5.72767600
_cell_length_b   8.17484465
_cell_length_c   8.17484465
_cell_angle_alpha   82.95052477
_cell_angle_beta   69.49291329
_cell_angle_gamma   69.49291328
_symmetry_Int_Tables_number   1
_chemical_formula_structural   Zr3Ir
_chemical_formula_sum   'Zr12 Ir4'
_cell_volume   335.79369427
_cell_formula_units_Z   4
loop_
 _symmetry_equiv_pos_site_id
 _symmetry_equiv_pos_as_xyz
  1  'x, y, z'
loop_
 _atom_site_type_symbol
 _atom_site_label
 _atom_site_symmetry_multiplicity
 _atom_site_fract_x
 _atom_site_fract_y
 _atom_site_fract_z
 _atom_site_occupancy
  Zr  Zr0  1  0.95826100  1.00000000  0.58802800  1.0
  Zr  Zr1  1  0.04173900  0.41197200  1.00000000  1.0
  Zr  Zr2  1  0.45371100  0.58802800  0.00000000  1.0
  Zr  Zr3  1  0.54628900  1.00000000  0.41197200  1.0
  Zr  Zr4  1  0.50000000  0.35426400  0.64573600  1.0
  Zr  Zr5  1  0.14573600  0.35426400  0.35426400  1.0
  Zr  Zr6  1  0.85426400  0.64573600  0.64573600  1.0
  Zr  Zr7  1  0.50000000  0.64573600  0.35426400  1.0
  Zr  Zr8  1  0.35833400  1.00000000  0.80863600  1.0
  Zr  Zr9  1  0.64166600  0.19136400  1.00000000  1.0
  Zr  Zr10  1  0.83303000  0.80863600  0.00000000  1.0
  Zr  Zr11  1  0.16697000  1.00000000  0.19136400  1.0
  Ir  Ir12  1  0.00000000  0.70791600  0.29208400  1.0
  Ir  Ir13  1  0.29208400  0.70791600  0.70791600  1.0
  Ir  Ir14  1  0.70791600  0.29208400  0.29208400  1.0
  Ir  Ir15  1  0.00000000  0.29208400  0.70791600  1.0
