# generated using pymatgen
data_Zr4CN3
_symmetry_space_group_name_H-M   'P 1'
_cell_length_a   3.28604019
_cell_length_b   3.28604019
_cell_length_c   10.89008499
_cell_angle_alpha   81.32247983
_cell_angle_beta   81.32247983
_cell_angle_gamma   59.99999620
_symmetry_Int_Tables_number   1
_chemical_formula_structural   Zr4CN3
_chemical_formula_sum   'Zr4 C1 N3'
_cell_volume   100.28017433
_cell_formula_units_Z   1
loop_
 _symmetry_equiv_pos_site_id
 _symmetry_equiv_pos_as_xyz
  1  'x, y, z'
loop_
 _atom_site_type_symbol
 _atom_site_label
 _atom_site_symmetry_multiplicity
 _atom_site_fract_x
 _atom_site_fract_y
 _atom_site_fract_z
 _atom_site_occupancy
  Zr  Zr0  1  0.87427400  0.87427400  0.37717800  1.0
  Zr  Zr1  1  0.12572600  0.12572600  0.62282200  1.0
  Zr  Zr2  1  0.37468100  0.37468100  0.87595700  1.0
  Zr  Zr3  1  0.62531900  0.62531900  0.12404300  1.0
  C  C4  1  0.00000000  0.00000000  0.00000000  1.0
  N  N5  1  0.24854100  0.24854100  0.25437700  1.0
  N  N6  1  0.50000000  0.50000000  0.50000000  1.0
  N  N7  1  0.75145900  0.75145900  0.74562300  1.0
