# generated using pymatgen
data_Zr5Ir2Os
_symmetry_space_group_name_H-M   'P 1'
_cell_length_a   5.58626800
_cell_length_b   8.04050800
_cell_length_c   8.05636217
_cell_angle_alpha   119.93492351
_cell_angle_beta   90.00000000
_cell_angle_gamma   90.00000000
_symmetry_Int_Tables_number   1
_chemical_formula_structural   Zr5Ir2Os
_chemical_formula_sum   'Zr10 Ir4 Os2'
_cell_volume   313.58789208
_cell_formula_units_Z   2
loop_
 _symmetry_equiv_pos_site_id
 _symmetry_equiv_pos_as_xyz
  1  'x, y, z'
loop_
 _atom_site_type_symbol
 _atom_site_label
 _atom_site_symmetry_multiplicity
 _atom_site_fract_x
 _atom_site_fract_y
 _atom_site_fract_z
 _atom_site_occupancy
  Zr  Zr0  1  0.74922300  0.33348800  0.66602600  1.0
  Zr  Zr1  1  0.74922300  0.66746200  0.33397400  1.0
  Zr  Zr2  1  0.25077700  0.66746200  0.33397400  1.0
  Zr  Zr3  1  0.25077700  0.33348800  0.66602600  1.0
  Zr  Zr4  1  0.50000000  0.23907200  0.24386500  1.0
  Zr  Zr5  1  0.50000000  0.99520700  0.75613500  1.0
  Zr  Zr6  1  0.50000000  0.75976300  1.00000000  1.0
  Zr  Zr7  1  0.00000000  0.75934700  0.75829900  1.0
  Zr  Zr8  1  0.00000000  0.00104800  0.24170100  1.0
  Zr  Zr9  1  0.00000000  0.24254300  1.00000000  1.0
  Ir  Ir10  1  0.50000000  0.39939200  1.00000000  1.0
  Ir  Ir11  1  0.00000000  0.39958500  0.39859500  1.0
  Ir  Ir12  1  0.00000000  0.00099000  0.60140500  1.0
  Ir  Ir13  1  0.00000000  0.60127600  1.00000000  1.0
  Os  Os14  1  0.50000000  0.59931400  0.59892000  1.0
  Os  Os15  1  0.50000000  0.00039400  0.40108000  1.0
