# generated using pymatgen
data_Zr5Sn4
_symmetry_space_group_name_H-M   'P 1'
_cell_length_a   5.97933200
_cell_length_b   8.85899800
_cell_length_c   8.85899772
_cell_angle_alpha   120.00000103
_cell_angle_beta   90.00000000
_cell_angle_gamma   90.00000000
_symmetry_Int_Tables_number   1
_chemical_formula_structural   Zr5Sn4
_chemical_formula_sum   'Zr10 Sn8'
_cell_volume   406.39886718
_cell_formula_units_Z   2
loop_
 _symmetry_equiv_pos_site_id
 _symmetry_equiv_pos_as_xyz
  1  'x, y, z'
loop_
 _atom_site_type_symbol
 _atom_site_label
 _atom_site_symmetry_multiplicity
 _atom_site_fract_x
 _atom_site_fract_y
 _atom_site_fract_z
 _atom_site_occupancy
  Zr  Zr0  1  1.00000000  0.66666667  0.33333333  1.0
  Zr  Zr1  1  0.50000000  0.33333333  0.66666667  1.0
  Zr  Zr2  1  1.00000000  0.33333333  0.66666667  1.0
  Zr  Zr3  1  0.50000000  0.66666667  0.33333333  1.0
  Zr  Zr4  1  0.75000000  0.71916400  0.71916400  1.0
  Zr  Zr5  1  0.25000000  0.71916400  1.00000000  1.0
  Zr  Zr6  1  0.25000000  1.00000000  0.71916400  1.0
  Zr  Zr7  1  0.75000000  1.00000000  0.28083600  1.0
  Zr  Zr8  1  0.75000000  0.28083600  1.00000000  1.0
  Zr  Zr9  1  0.25000000  0.28083600  0.28083600  1.0
  Sn  Sn10  1  0.00000000  0.00000000  0.00000000  1.0
  Sn  Sn11  1  0.50000000  0.00000000  0.00000000  1.0
  Sn  Sn12  1  0.75000000  0.38610300  0.38610300  1.0
  Sn  Sn13  1  0.25000000  0.38610300  1.00000000  1.0
  Sn  Sn14  1  0.25000000  1.00000000  0.38610300  1.0
  Sn  Sn15  1  0.75000000  1.00000000  0.61389700  1.0
  Sn  Sn16  1  0.75000000  0.61389700  1.00000000  1.0
  Sn  Sn17  1  0.25000000  0.61389700  0.61389700  1.0
