# generated using pymatgen
data_Zr5Te4
_symmetry_space_group_name_H-M   'P 1'
_cell_length_a   3.86742400
_cell_length_b   7.93749072
_cell_length_c   7.93749072
_cell_angle_alpha   86.59752421
_cell_angle_beta   75.89985036
_cell_angle_gamma   75.89985036
_symmetry_Int_Tables_number   1
_chemical_formula_structural   Zr5Te4
_chemical_formula_sum   'Zr5 Te4'
_cell_volume   229.20101486
_cell_formula_units_Z   1
loop_
 _symmetry_equiv_pos_site_id
 _symmetry_equiv_pos_as_xyz
  1  'x, y, z'
loop_
 _atom_site_type_symbol
 _atom_site_label
 _atom_site_symmetry_multiplicity
 _atom_site_fract_x
 _atom_site_fract_y
 _atom_site_fract_z
 _atom_site_occupancy
  Zr  Zr0  1  0.00000000  0.00000000  0.00000000  1.0
  Zr  Zr1  1  0.37013200  0.93931600  0.32042000  1.0
  Zr  Zr2  1  0.62986800  0.06068400  0.67958000  1.0
  Zr  Zr3  1  0.69055200  0.67958000  0.93931600  1.0
  Zr  Zr4  1  0.30944800  0.32042000  0.06068400  1.0
  Te  Te5  1  0.28080600  0.77282600  0.66556200  1.0
  Te  Te6  1  0.71919400  0.22717400  0.33443800  1.0
  Te  Te7  1  0.94636900  0.33443700  0.77282600  1.0
  Te  Te8  1  0.05363100  0.66556300  0.22717400  1.0
