# generated using pymatgen
data_Zr9Pd11
_symmetry_space_group_name_H-M   'P 1'
_cell_length_a   6.88095000
_cell_length_b   8.15207865
_cell_length_c   8.15207865
_cell_angle_alpha   79.74002656
_cell_angle_beta   65.03677084
_cell_angle_gamma   65.03677082
_symmetry_Int_Tables_number   1
_chemical_formula_structural   Zr9Pd11
_chemical_formula_sum   'Zr9 Pd11'
_cell_volume   375.83417301
_cell_formula_units_Z   1
loop_
 _symmetry_equiv_pos_site_id
 _symmetry_equiv_pos_as_xyz
  1  'x, y, z'
loop_
 _atom_site_type_symbol
 _atom_site_label
 _atom_site_symmetry_multiplicity
 _atom_site_fract_x
 _atom_site_fract_y
 _atom_site_fract_z
 _atom_site_occupancy
  Zr  Zr0  1  0.76071400  0.65457900  0.82399300  1.0
  Zr  Zr1  1  0.23928600  0.34542100  0.17600700  1.0
  Zr  Zr2  1  0.41529300  0.82399300  0.34542100  1.0
  Zr  Zr3  1  0.58470700  0.17600700  0.65457900  1.0
  Zr  Zr4  1  0.69344900  0.40136300  0.21173900  1.0
  Zr  Zr5  1  0.30655100  0.59863700  0.78826100  1.0
  Zr  Zr6  1  0.09481200  0.21173900  0.59863700  1.0
  Zr  Zr7  1  0.90518800  0.78826100  0.40136300  1.0
  Zr  Zr8  1  0.00000000  0.00000000  0.00000000  1.0
  Pd  Pd9  1  0.10013500  0.33462300  0.89075200  1.0
  Pd  Pd10  1  0.89986500  0.66537700  0.10924800  1.0
  Pd  Pd11  1  0.32550900  0.66537700  0.10924900  1.0
  Pd  Pd12  1  0.43475800  0.89075200  0.66537600  1.0
  Pd  Pd13  1  0.67449100  0.33462300  0.89075100  1.0
  Pd  Pd14  1  0.56524200  0.10924800  0.33462400  1.0
  Pd  Pd15  1  0.99088700  0.10924800  0.33462300  1.0
  Pd  Pd16  1  0.00911300  0.89075200  0.66537700  1.0
  Pd  Pd17  1  0.25000000  0.50000000  0.50000000  1.0
  Pd  Pd18  1  0.75000000  0.50000000  0.50000000  1.0
  Pd  Pd19  1  0.50000000  0.00000000  1.00000000  1.0
