# generated using pymatgen
data_ZrCrAgS4
_symmetry_space_group_name_H-M   'P 1'
_cell_length_a   3.63743300
_cell_length_b   6.10882741
_cell_length_c   7.27242306
_cell_angle_alpha   113.56338469
_cell_angle_beta   104.48248171
_cell_angle_gamma   90.00000000
_symmetry_Int_Tables_number   1
_chemical_formula_structural   ZrCrAgS4
_chemical_formula_sum   'Zr1 Cr1 Ag1 S4'
_cell_volume   142.50277457
_cell_formula_units_Z   1
loop_
 _symmetry_equiv_pos_site_id
 _symmetry_equiv_pos_as_xyz
  1  'x, y, z'
loop_
 _atom_site_type_symbol
 _atom_site_label
 _atom_site_symmetry_multiplicity
 _atom_site_fract_x
 _atom_site_fract_y
 _atom_site_fract_z
 _atom_site_occupancy
  Ag  Ag4  1  0.49722900  0.48193500  0.99445800  1.0
  Cr  Cr2  1  0.75466500  0.77064200  0.50933000  1.0
  S  S6  1  0.62988500  0.95884100  0.25977000  1.0
  S  S7  1  0.36561200  0.01503900  0.73122400  1.0
  S  S10  1  0.15023500  0.51216900  0.30047000  1.0
  S  S11  1  0.85663700  0.53471100  0.71327400  1.0
  Zr  Zr0  1  0.24573500  0.22666300  0.49147000  1.0
