# generated using pymatgen
data_ZrGa2
_symmetry_space_group_name_H-M   'P 1'
_cell_length_a   4.01626400
_cell_length_b   4.15715500
_cell_length_c   6.81103506
_cell_angle_alpha   90.00000000
_cell_angle_beta   107.14764773
_cell_angle_gamma   90.00000000
_symmetry_Int_Tables_number   1
_chemical_formula_structural   ZrGa2
_chemical_formula_sum   'Zr2 Ga4'
_cell_volume   108.66361910
_cell_formula_units_Z   2
loop_
 _symmetry_equiv_pos_site_id
 _symmetry_equiv_pos_as_xyz
  1  'x, y, z'
loop_
 _atom_site_type_symbol
 _atom_site_label
 _atom_site_symmetry_multiplicity
 _atom_site_fract_x
 _atom_site_fract_y
 _atom_site_fract_z
 _atom_site_occupancy
  Zr  Zr0  1  0.65005600  1.00000000  0.30011200  1.0
  Zr  Zr1  1  0.34994400  0.00000000  0.69988800  1.0
  Ga  Ga2  1  0.00000000  0.00000000  0.00000000  1.0
  Ga  Ga3  1  0.50000000  0.50000000  0.00000000  1.0
  Ga  Ga4  1  0.82198400  0.50000000  0.64396800  1.0
  Ga  Ga5  1  0.17801600  0.50000000  0.35603200  1.0
