# generated using pymatgen
data_ZrGeOs
_symmetry_space_group_name_H-M   'P 1'
_cell_length_a   3.82846100
_cell_length_b   6.76745800
_cell_length_c   6.76745839
_cell_angle_alpha   119.99999809
_cell_angle_beta   90.00000000
_cell_angle_gamma   90.00000000
_symmetry_Int_Tables_number   1
_chemical_formula_structural   ZrGeOs
_chemical_formula_sum   'Zr3 Ge3 Os3'
_cell_volume   151.84693515
_cell_formula_units_Z   3
loop_
 _symmetry_equiv_pos_site_id
 _symmetry_equiv_pos_as_xyz
  1  'x, y, z'
loop_
 _atom_site_type_symbol
 _atom_site_label
 _atom_site_symmetry_multiplicity
 _atom_site_fract_x
 _atom_site_fract_y
 _atom_site_fract_z
 _atom_site_occupancy
  Zr  Zr0  1  0.50000000  0.58619100  1.00000000  1.0
  Zr  Zr1  1  0.50000000  0.41380900  0.41380900  1.0
  Zr  Zr2  1  0.50000000  0.00000000  0.58619100  1.0
  Ge  Ge3  1  1.00000000  0.33333333  0.66666667  1.0
  Ge  Ge4  1  1.00000000  0.66666667  0.33333333  1.0
  Ge  Ge5  1  0.50000000  0.00000000  0.00000000  1.0
  Os  Os6  1  1.00000000  0.24440700  1.00000000  1.0
  Os  Os7  1  1.00000000  0.75559300  0.75559300  1.0
  Os  Os8  1  0.00000000  0.00000000  0.24440700  1.0
