# generated using pymatgen
data_ZrMnO3
_symmetry_space_group_name_H-M   'P 1'
_cell_length_a   5.49602048
_cell_length_b   5.49614076
_cell_length_c   5.82381589
_cell_angle_alpha   61.84372449
_cell_angle_beta   90.00097179
_cell_angle_gamma   119.99971326
_symmetry_Int_Tables_number   1
_chemical_formula_structural   ZrMnO3
_chemical_formula_sum   'Zr2 Mn2 O6'
_cell_volume   127.74990691
_cell_formula_units_Z   2
loop_
 _symmetry_equiv_pos_site_id
 _symmetry_equiv_pos_as_xyz
  1  'x, y, z'
loop_
 _atom_site_type_symbol
 _atom_site_label
 _atom_site_symmetry_multiplicity
 _atom_site_fract_x
 _atom_site_fract_y
 _atom_site_fract_z
 _atom_site_occupancy
  Zr  Zr0  1  0.14490200  0.28980400  0.56528200  1.0
  Zr  Zr1  1  0.85509800  0.71020000  0.43471200  1.0
  Mn  Mn2  1  0.64079900  0.28159600  0.07758000  1.0
  Mn  Mn3  1  0.35917900  0.71834800  0.92250500  1.0
  O  O4  1  0.04537900  0.49228900  0.74014400  1.0
  O  O5  1  0.44692800  0.21447900  0.74015000  1.0
  O  O6  1  0.76755800  0.81293800  0.74014700  1.0
  O  O7  1  0.23245200  0.18708100  0.25982600  1.0
  O  O8  1  0.55307800  0.78554000  0.25982200  1.0
  O  O9  1  0.95462600  0.50772500  0.25983100  1.0
