# generated using pymatgen
data_ZrNbFe4
_symmetry_space_group_name_H-M   'P 1'
_cell_length_a   4.92427800
_cell_length_b   4.92452149
_cell_length_c   8.04650200
_cell_angle_alpha   90.00318975
_cell_angle_beta   90.00000000
_cell_angle_gamma   119.99836439
_symmetry_Int_Tables_number   1
_chemical_formula_structural   ZrNbFe4
_chemical_formula_sum   'Zr2 Nb2 Fe8'
_cell_volume   168.98630571
_cell_formula_units_Z   2
loop_
 _symmetry_equiv_pos_site_id
 _symmetry_equiv_pos_as_xyz
  1  'x, y, z'
loop_
 _atom_site_type_symbol
 _atom_site_label
 _atom_site_symmetry_multiplicity
 _atom_site_fract_x
 _atom_site_fract_y
 _atom_site_fract_z
 _atom_site_occupancy
  Zr  Zr0  1  0.66661000  0.33327667  0.93342000  1.0
  Zr  Zr1  1  0.33333333  0.66672333  0.06658000  1.0
  Nb  Nb2  1  0.33333333  0.66666667  0.44423500  1.0
  Nb  Nb3  1  0.66666667  0.33333333  0.55576500  1.0
  Fe  Fe4  1  0.00000000  0.00000000  0.50000000  1.0
  Fe  Fe5  1  0.00000000  0.00000000  0.00000000  1.0
  Fe  Fe6  1  0.83227100  0.16787100  0.25540400  1.0
  Fe  Fe7  1  0.83221400  0.66442800  0.25556700  1.0
  Fe  Fe8  1  0.33560000  0.16787100  0.25540400  1.0
  Fe  Fe9  1  0.16772900  0.83212900  0.74459600  1.0
  Fe  Fe10  1  0.16778600  0.33557200  0.74443300  1.0
  Fe  Fe11  1  0.66440000  0.83212900  0.74459600  1.0
