# generated using pymatgen
data_ZrTiRh
_symmetry_space_group_name_H-M   'P 1'
_cell_length_a   5.29417187
_cell_length_b   5.29459198
_cell_length_c   8.55593500
_cell_angle_alpha   90.00000000
_cell_angle_beta   90.00000000
_cell_angle_gamma   116.89923145
_symmetry_Int_Tables_number   1
_chemical_formula_structural   ZrTiRh
_chemical_formula_sum   'Zr4 Ti4 Rh4'
_cell_volume   213.87854990
_cell_formula_units_Z   4
loop_
 _symmetry_equiv_pos_site_id
 _symmetry_equiv_pos_as_xyz
  1  'x, y, z'
loop_
 _atom_site_type_symbol
 _atom_site_label
 _atom_site_symmetry_multiplicity
 _atom_site_fract_x
 _atom_site_fract_y
 _atom_site_fract_z
 _atom_site_occupancy
  Zr  Zr0  1  0.32847800  0.67154200  0.56617300  1.0
  Zr  Zr1  1  0.66451200  0.33546900  0.45144800  1.0
  Zr  Zr2  1  0.66451200  0.33546900  0.04855200  1.0
  Zr  Zr3  1  0.32847800  0.67154200  0.93382700  1.0
  Ti  Ti4  1  0.84438700  0.15556100  0.75000000  1.0
  Ti  Ti5  1  0.65213500  0.82590500  0.25000000  1.0
  Ti  Ti6  1  0.17405200  0.34791100  0.25000000  1.0
  Ti  Ti7  1  0.16554300  0.83439400  0.25000000  1.0
  Rh  Rh8  1  0.99423300  0.00582300  0.49172600  1.0
  Rh  Rh9  1  0.99423300  0.00582300  0.00827400  1.0
  Rh  Rh10  1  0.35008000  0.16064000  0.75000000  1.0
  Rh  Rh11  1  0.83935500  0.64991900  0.75000000  1.0
