# generated using pymatgen
data_ZrTiS4
_symmetry_space_group_name_H-M   'P 1'
_cell_length_a   3.57054400
_cell_length_b   3.57054417
_cell_length_c   12.29576000
_cell_angle_alpha   90.00000000
_cell_angle_beta   90.00000000
_cell_angle_gamma   119.99999847
_symmetry_Int_Tables_number   1
_chemical_formula_structural   ZrTiS4
_chemical_formula_sum   'Zr1 Ti1 S4'
_cell_volume   135.75468171
_cell_formula_units_Z   1
loop_
 _symmetry_equiv_pos_site_id
 _symmetry_equiv_pos_as_xyz
  1  'x, y, z'
loop_
 _atom_site_type_symbol
 _atom_site_label
 _atom_site_symmetry_multiplicity
 _atom_site_fract_x
 _atom_site_fract_y
 _atom_site_fract_z
 _atom_site_occupancy
  Zr  Zr0  1  0.00000000  0.00000000  0.50000000  1.0
  Ti  Ti1  1  0.00000000  0.00000000  0.00000000  1.0
  S  S2  1  0.33333333  0.66666667  0.11024300  1.0
  S  S3  1  0.33333333  0.66666667  0.62335900  1.0
  S  S4  1  0.66666667  0.33333333  0.37664100  1.0
  S  S5  1  0.66666667  0.33333333  0.88975700  1.0
