# generated using pymatgen
data_AcGa3
_symmetry_space_group_name_H-M   'P 1'
_cell_length_a   4.70498700
_cell_length_b   6.84112200
_cell_length_c   6.84112248
_cell_angle_alpha   119.99999766
_cell_angle_beta   90.00000000
_cell_angle_gamma   90.00000000
_symmetry_Int_Tables_number   1
_chemical_formula_structural   AcGa3
_chemical_formula_sum   'Ac2 Ga6'
_cell_volume   190.69696046
_cell_formula_units_Z   2
loop_
 _symmetry_equiv_pos_site_id
 _symmetry_equiv_pos_as_xyz
  1  'x, y, z'
loop_
 _atom_site_type_symbol
 _atom_site_label
 _atom_site_symmetry_multiplicity
 _atom_site_fract_x
 _atom_site_fract_y
 _atom_site_fract_z
 _atom_site_occupancy
  Ac  Ac0  1  0.25000000  0.66666667  0.33333333  1.0
  Ac  Ac1  1  0.75000000  0.33333333  0.66666667  1.0
  Ga  Ga2  1  0.75000000  0.86439400  0.13560500  1.0
  Ga  Ga3  1  0.75000000  0.27121100  0.13560500  1.0
  Ga  Ga4  1  0.75000000  0.86439400  0.72878800  1.0
  Ga  Ga5  1  0.25000000  0.13560600  0.86439500  1.0
  Ga  Ga6  1  0.25000000  0.72878900  0.86439500  1.0
  Ga  Ga7  1  0.25000000  0.13560600  0.27121200  1.0
