# generated using pymatgen
data_Ag2S
_symmetry_space_group_name_H-M   'P 1'
_cell_length_a   4.36113600
_cell_length_b   7.40179500
_cell_length_c   7.78914275
_cell_angle_alpha   90.00000000
_cell_angle_beta   101.26754018
_cell_angle_gamma   90.00000000
_symmetry_Int_Tables_number   1
_chemical_formula_structural   Ag2S
_chemical_formula_sum   'Ag8 S4'
_cell_volume   246.58906758
_cell_formula_units_Z   4
loop_
 _symmetry_equiv_pos_site_id
 _symmetry_equiv_pos_as_xyz
  1  'x, y, z'
loop_
 _atom_site_type_symbol
 _atom_site_label
 _atom_site_symmetry_multiplicity
 _atom_site_fract_x
 _atom_site_fract_y
 _atom_site_fract_z
 _atom_site_occupancy
  Ag  Ag0  1  0.72895600  0.49118700  0.20641300  1.0
  Ag  Ag1  1  0.27104400  0.50881300  0.79358700  1.0
  Ag  Ag2  1  0.70176200  0.30697100  0.55709100  1.0
  Ag  Ag3  1  0.77104400  0.99118700  0.29358700  1.0
  Ag  Ag4  1  0.22895600  0.00881300  0.70641300  1.0
  Ag  Ag5  1  0.29823800  0.69302900  0.44290900  1.0
  Ag  Ag6  1  0.20176200  0.19302900  0.05709100  1.0
  Ag  Ag7  1  0.79823800  0.80697100  0.94290900  1.0
  S  S8  1  0.59915200  0.23665600  0.85946100  1.0
  S  S9  1  0.90084800  0.73665600  0.64053900  1.0
  S  S10  1  0.40084800  0.76334400  0.14053900  1.0
  S  S11  1  0.09915200  0.26334400  0.35946100  1.0
