# generated using pymatgen
data_Ag2TeS3
_symmetry_space_group_name_H-M   'P 1'
_cell_length_a   6.77980390
_cell_length_b   6.77980390
_cell_length_c   8.00666450
_cell_angle_alpha   102.10725721
_cell_angle_beta   102.10725721
_cell_angle_gamma   118.62672870
_symmetry_Int_Tables_number   1
_chemical_formula_structural   Ag2TeS3
_chemical_formula_sum   'Ag4 Te2 S6'
_cell_volume   294.50055146
_cell_formula_units_Z   2
loop_
 _symmetry_equiv_pos_site_id
 _symmetry_equiv_pos_as_xyz
  1  'x, y, z'
loop_
 _atom_site_type_symbol
 _atom_site_label
 _atom_site_symmetry_multiplicity
 _atom_site_fract_x
 _atom_site_fract_y
 _atom_site_fract_z
 _atom_site_occupancy
  Ag  Ag0  1  0.62876200  0.69392500  0.12453900  1.0
  Ag  Ag1  1  0.90959900  0.31994300  0.08166200  1.0
  Ag  Ag2  1  0.69392500  0.62876200  0.62453900  1.0
  Ag  Ag3  1  0.31994300  0.90959900  0.58166200  1.0
  Te  Te4  1  0.28807100  0.00552600  0.09724700  1.0
  Te  Te5  1  0.00552600  0.28807100  0.59724700  1.0
  S  S6  1  0.88366400  0.64488500  0.94583400  1.0
  S  S7  1  0.64488500  0.88366400  0.44583400  1.0
  S  S8  1  0.27625800  0.22370900  0.48451000  1.0
  S  S9  1  0.22370900  0.27625800  0.98451000  1.0
  S  S10  1  0.91574500  0.48951400  0.40720700  1.0
  S  S11  1  0.48951400  0.91574500  0.90720700  1.0
