# generated using pymatgen
data_Ag3AsS3
_symmetry_space_group_name_H-M   'P 1'
_cell_length_a   7.32518301
_cell_length_b   7.32518301
_cell_length_c   7.32518301
_cell_angle_alpha   105.37246062
_cell_angle_beta   105.37246062
_cell_angle_gamma   105.37246429
_symmetry_Int_Tables_number   1
_chemical_formula_structural   Ag3AsS3
_chemical_formula_sum   'Ag6 As2 S6'
_cell_volume   340.83252765
_cell_formula_units_Z   2
loop_
 _symmetry_equiv_pos_site_id
 _symmetry_equiv_pos_as_xyz
  1  'x, y, z'
loop_
 _atom_site_type_symbol
 _atom_site_label
 _atom_site_symmetry_multiplicity
 _atom_site_fract_x
 _atom_site_fract_y
 _atom_site_fract_z
 _atom_site_occupancy
  Ag  Ag0  1  0.45679900  0.87627900  0.96805100  1.0
  Ag  Ag1  1  0.95679900  0.46805100  0.37627900  1.0
  Ag  Ag2  1  0.96805100  0.45679900  0.87627900  1.0
  Ag  Ag3  1  0.37627900  0.95679900  0.46805100  1.0
  Ag  Ag4  1  0.87627900  0.96805100  0.45679900  1.0
  Ag  Ag5  1  0.46805100  0.37627900  0.95679900  1.0
  As  As6  1  0.41307200  0.41307200  0.41307200  1.0
  As  As7  1  0.91307200  0.91307200  0.91307200  1.0
  S  S8  1  0.58663500  0.31895000  0.66201400  1.0
  S  S9  1  0.08663500  0.16201400  0.81895000  1.0
  S  S10  1  0.66201400  0.58663500  0.31895000  1.0
  S  S11  1  0.81895000  0.08663500  0.16201400  1.0
  S  S12  1  0.31895000  0.66201400  0.58663500  1.0
  S  S13  1  0.16201400  0.81895000  0.08663500  1.0
