# generated using pymatgen
data_Ag9Te4Br3
_symmetry_space_group_name_H-M   'P 1'
_cell_length_a   7.57605900
_cell_length_b   7.59231477
_cell_length_c   8.37323631
_cell_angle_alpha   89.40572596
_cell_angle_beta   89.99400577
_cell_angle_gamma   65.16155574
_symmetry_Int_Tables_number   1
_chemical_formula_structural   Ag9Te4Br3
_chemical_formula_sum   'Ag9 Te4 Br3'
_cell_volume   437.04626276
_cell_formula_units_Z   1
loop_
 _symmetry_equiv_pos_site_id
 _symmetry_equiv_pos_as_xyz
  1  'x, y, z'
loop_
 _atom_site_type_symbol
 _atom_site_label
 _atom_site_symmetry_multiplicity
 _atom_site_fract_x
 _atom_site_fract_y
 _atom_site_fract_z
 _atom_site_occupancy
  Ag  Ag0  1  0.14239100  0.79029600  0.91340300  1.0
  Ag  Ag1  1  0.98269900  0.68953700  0.44158600  1.0
  Ag  Ag2  1  0.60252500  0.21900800  0.22574900  1.0
  Ag  Ag3  1  0.97167300  0.37324600  0.64748900  1.0
  Ag  Ag4  1  0.35315300  0.99115400  0.66555900  1.0
  Ag  Ag5  1  0.36784800  0.00048600  0.31499700  1.0
  Ag  Ag6  1  0.69117900  0.68803900  0.15712000  1.0
  Ag  Ag7  1  0.00393200  0.33961600  0.29048900  1.0
  Ag  Ag8  1  0.81904200  0.17771300  0.93053600  1.0
  Te  Te9  1  0.01224600  0.96927100  0.21557500  1.0
  Te  Te10  1  0.97701800  0.99889000  0.64350600  1.0
  Te  Te11  1  0.34362600  0.34096000  0.48334700  1.0
  Te  Te12  1  0.62622900  0.64671200  0.47976800  1.0
  Br  Br13  1  0.48901100  0.50541900  0.98315900  1.0
  Br  Br14  1  0.50504000  0.00198300  0.96027700  1.0
  Br  Br15  1  0.00485500  0.48403600  0.95693800  1.0
