# generated using pymatgen
data_AgAuF4
_symmetry_space_group_name_H-M   'P 1'
_cell_length_a   5.87671000
_cell_length_b   5.87671000
_cell_length_c   6.87928079
_cell_angle_alpha   115.28563195
_cell_angle_beta   115.28563194
_cell_angle_gamma   90.00000000
_symmetry_Int_Tables_number   1
_chemical_formula_structural   AgAuF4
_chemical_formula_sum   'Ag2 Au2 F8'
_cell_volume   189.33842646
_cell_formula_units_Z   2
loop_
 _symmetry_equiv_pos_site_id
 _symmetry_equiv_pos_as_xyz
  1  'x, y, z'
loop_
 _atom_site_type_symbol
 _atom_site_label
 _atom_site_symmetry_multiplicity
 _atom_site_fract_x
 _atom_site_fract_y
 _atom_site_fract_z
 _atom_site_occupancy
  Ag  Ag0  1  0.25000000  0.25000000  0.50000000  1.0
  Ag  Ag1  1  0.75000000  0.75000000  0.50000000  1.0
  Au  Au2  1  0.50000000  1.00000000  1.00000000  1.0
  Au  Au3  1  0.00000000  0.50000000  0.00000000  1.0
  F  F4  1  0.20238100  0.04228100  0.74466200  1.0
  F  F5  1  0.45772000  0.29762000  0.25534000  1.0
  F  F6  1  0.79761900  0.95771900  0.25533800  1.0
  F  F7  1  0.29761900  0.79761900  0.25533900  1.0
  F  F8  1  0.54228000  0.70238000  0.74466000  1.0
  F  F9  1  0.04228000  0.54228000  0.74466100  1.0
  F  F10  1  0.70238100  0.20238100  0.74466100  1.0
  F  F11  1  0.95772000  0.45772000  0.25533900  1.0
