# generated using pymatgen
data_AgPO3
_symmetry_space_group_name_H-M   'P 1'
_cell_length_a   4.05025800
_cell_length_b   5.87268600
_cell_length_c   11.22767879
_cell_angle_alpha   97.57978170
_cell_angle_beta   90.00000000
_cell_angle_gamma   90.00000000
_symmetry_Int_Tables_number   1
_chemical_formula_structural   AgPO3
_chemical_formula_sum   'Ag4 P4 O12'
_cell_volume   264.72683754
_cell_formula_units_Z   4
loop_
 _symmetry_equiv_pos_site_id
 _symmetry_equiv_pos_as_xyz
  1  'x, y, z'
loop_
 _atom_site_type_symbol
 _atom_site_label
 _atom_site_symmetry_multiplicity
 _atom_site_fract_x
 _atom_site_fract_y
 _atom_site_fract_z
 _atom_site_occupancy
  Ag  Ag0  1  0.85963300  0.22765600  0.90952500  1.0
  Ag  Ag1  1  0.35963300  0.27234400  0.59047500  1.0
  Ag  Ag2  1  0.64036700  0.72765600  0.40952500  1.0
  Ag  Ag3  1  0.14036700  0.77234400  0.09047500  1.0
  P  P4  1  0.51178500  0.67426500  0.82895600  1.0
  P  P5  1  0.01178500  0.82573500  0.67104400  1.0
  P  P6  1  0.98821500  0.17426500  0.32895600  1.0
  P  P7  1  0.48821500  0.32573500  0.17104400  1.0
  O  O8  1  0.68078100  0.79299200  0.93908000  1.0
  O  O9  1  0.35050800  0.44288300  0.82973500  1.0
  O  O10  1  0.25716100  0.86198200  0.78706700  1.0
  O  O11  1  0.75716100  0.63801800  0.71293300  1.0
  O  O12  1  0.85050800  0.05711700  0.67026500  1.0
  O  O13  1  0.18078100  0.70700800  0.56092000  1.0
  O  O14  1  0.81921900  0.29299200  0.43908000  1.0
  O  O15  1  0.14949200  0.94288300  0.32973500  1.0
  O  O16  1  0.24283900  0.36198200  0.28706700  1.0
  O  O17  1  0.74283900  0.13801800  0.21293300  1.0
  O  O18  1  0.64949200  0.55711700  0.17026500  1.0
  O  O19  1  0.31921900  0.20700800  0.06092000  1.0
