# generated using pymatgen
data_Al(CoO2)2
_symmetry_space_group_name_H-M   'P 1'
_cell_length_a   5.81297513
_cell_length_b   5.81297513
_cell_length_c   5.81297513
_cell_angle_alpha   88.62634381
_cell_angle_beta   60.40649063
_cell_angle_gamma   118.82814703
_symmetry_Int_Tables_number   1
_chemical_formula_structural   Al(CoO2)2
_chemical_formula_sum   'Al2 Co4 O8'
_cell_volume   140.49846135
_cell_formula_units_Z   2
loop_
 _symmetry_equiv_pos_site_id
 _symmetry_equiv_pos_as_xyz
  1  'x, y, z'
loop_
 _atom_site_type_symbol
 _atom_site_label
 _atom_site_symmetry_multiplicity
 _atom_site_fract_x
 _atom_site_fract_y
 _atom_site_fract_z
 _atom_site_occupancy
  Al  Al0  1  0.50000000  1.00000000  0.00000000  1.0
  Al  Al1  1  0.00000000  0.00000000  0.50000000  1.0
  Co  Co2  1  0.50000000  0.50000000  0.00000000  1.0
  Co  Co3  1  0.75000000  0.37827200  0.37172800  1.0
  Co  Co4  1  0.00000000  0.00000000  0.00000000  1.0
  Co  Co5  1  0.25000000  0.62172800  0.62827200  1.0
  O  O6  1  0.53170400  0.77017500  0.76152900  1.0
  O  O7  1  0.96829600  0.20676700  0.76152900  1.0
  O  O8  1  0.98433900  0.76823200  0.74742900  1.0
  O  O9  1  0.51566100  0.76823200  0.21610700  1.0
  O  O10  1  0.48433900  0.23176800  0.78389300  1.0
  O  O11  1  0.01566100  0.23176800  0.25257100  1.0
  O  O12  1  0.46829600  0.22982500  0.23847100  1.0
  O  O13  1  0.03170400  0.79323300  0.23847100  1.0
