# generated using pymatgen
data_Al2HgSe4
_symmetry_space_group_name_H-M   'P 1'
_cell_length_a   7.78157153
_cell_length_b   7.78157153
_cell_length_c   7.78157153
_cell_angle_alpha   60.00000000
_cell_angle_beta   60.00000000
_cell_angle_gamma   60.00000000
_symmetry_Int_Tables_number   1
_chemical_formula_structural   Al2HgSe4
_chemical_formula_sum   'Al4 Hg2 Se8'
_cell_volume   333.18615291
_cell_formula_units_Z   2
loop_
 _symmetry_equiv_pos_site_id
 _symmetry_equiv_pos_as_xyz
  1  'x, y, z'
loop_
 _atom_site_type_symbol
 _atom_site_label
 _atom_site_symmetry_multiplicity
 _atom_site_fract_x
 _atom_site_fract_y
 _atom_site_fract_z
 _atom_site_occupancy
  Al  Al0  1  0.37500000  0.37500000  0.87500000  1.0
  Al  Al1  1  0.37500000  0.37500000  0.37500000  1.0
  Al  Al2  1  0.37500000  0.87500000  0.37500000  1.0
  Al  Al3  1  0.87500000  0.37500000  0.37500000  1.0
  Hg  Hg4  1  0.75000000  0.75000000  0.75000000  1.0
  Hg  Hg5  1  0.00000000  0.00000000  0.00000000  1.0
  Se  Se6  1  0.61025600  0.61025700  0.16923000  1.0
  Se  Se7  1  0.61025600  0.61025700  0.61025700  1.0
  Se  Se8  1  0.61025600  0.16923000  0.61025700  1.0
  Se  Se9  1  0.16922900  0.61025700  0.61025700  1.0
  Se  Se10  1  0.13974400  0.13974300  0.58077000  1.0
  Se  Se11  1  0.13974400  0.13974300  0.13974300  1.0
  Se  Se12  1  0.13974400  0.58077000  0.13974300  1.0
  Se  Se13  1  0.58077100  0.13974300  0.13974300  1.0
