# generated using pymatgen
data_Al2InN3
_symmetry_space_group_name_H-M   'P 1'
_cell_length_a   5.24761000
_cell_length_b   5.65531607
_cell_length_c   5.67227979
_cell_angle_alpha   119.90112601
_cell_angle_beta   90.00000000
_cell_angle_gamma   90.00000000
_symmetry_Int_Tables_number   1
_chemical_formula_structural   Al2InN3
_chemical_formula_sum   'Al4 In2 N6'
_cell_volume   145.92797113
_cell_formula_units_Z   2
loop_
 _symmetry_equiv_pos_site_id
 _symmetry_equiv_pos_as_xyz
  1  'x, y, z'
loop_
 _atom_site_type_symbol
 _atom_site_label
 _atom_site_symmetry_multiplicity
 _atom_site_fract_x
 _atom_site_fract_y
 _atom_site_fract_z
 _atom_site_occupancy
  Al  Al0  1  0.49174500  0.00849800  0.34340800  1.0
  Al  Al1  1  0.49174500  0.66509100  0.65659200  1.0
  Al  Al2  1  0.99174500  0.99150200  0.65659200  1.0
  Al  Al3  1  0.99174500  0.33490900  0.34340800  1.0
  In  In4  1  0.48675400  0.32193200  1.00000000  1.0
  In  In5  1  0.98675400  0.67806800  1.00000000  1.0
  N  N6  1  0.85561000  0.03714200  0.37075900  1.0
  N  N7  1  0.85561000  0.66638300  0.62924100  1.0
  N  N8  1  0.35561000  0.96285800  0.62924100  1.0
  N  N9  1  0.35561000  0.33361700  0.37075900  1.0
  N  N10  1  0.90653700  0.29791200  1.00000000  1.0
  N  N11  1  0.40653700  0.70208800  1.00000000  1.0
