# generated using pymatgen
data_Al2O3
_symmetry_space_group_name_H-M   'P 1'
_cell_length_a   4.80502765
_cell_length_b   4.80502765
_cell_length_c   5.17795522
_cell_angle_alpha   62.35519442
_cell_angle_beta   62.35519442
_cell_angle_gamma   60.00000481
_symmetry_Int_Tables_number   1
_chemical_formula_structural   Al2O3
_chemical_formula_sum   'Al4 O6'
_cell_volume   87.42003693
_cell_formula_units_Z   2
loop_
 _symmetry_equiv_pos_site_id
 _symmetry_equiv_pos_as_xyz
  1  'x, y, z'
loop_
 _atom_site_type_symbol
 _atom_site_label
 _atom_site_symmetry_multiplicity
 _atom_site_fract_x
 _atom_site_fract_y
 _atom_site_fract_z
 _atom_site_occupancy
  Al  Al0  1  0.14790400  0.14790400  0.55628800  1.0
  Al  Al1  1  0.35209600  0.35209600  0.94371200  1.0
  Al  Al2  1  0.64790400  0.64790400  0.05628800  1.0
  Al  Al3  1  0.85209600  0.85209600  0.44371200  1.0
  O  O4  1  0.94385400  0.55614600  0.25000000  1.0
  O  O5  1  0.44385400  0.75000000  0.75000000  1.0
  O  O6  1  0.55614600  0.25000000  0.25000000  1.0
  O  O7  1  0.25000000  0.94385400  0.25000000  1.0
  O  O8  1  0.75000000  0.05614600  0.75000000  1.0
  O  O9  1  0.05614600  0.44385400  0.75000000  1.0
