# generated using pymatgen
data_Al2O3
_symmetry_space_group_name_H-M   'P 1'
_cell_length_a   2.94095000
_cell_length_b   5.67051545
_cell_length_c   6.14151146
_cell_angle_alpha   103.61343784
_cell_angle_beta   103.85302501
_cell_angle_gamma   90.00000000
_symmetry_Int_Tables_number   1
_chemical_formula_structural   Al2O3
_chemical_formula_sum   'Al4 O6'
_cell_volume   96.47485345
_cell_formula_units_Z   2
loop_
 _symmetry_equiv_pos_site_id
 _symmetry_equiv_pos_as_xyz
  1  'x, y, z'
loop_
 _atom_site_type_symbol
 _atom_site_label
 _atom_site_symmetry_multiplicity
 _atom_site_fract_x
 _atom_site_fract_y
 _atom_site_fract_z
 _atom_site_occupancy
  Al  Al0  1  0.09012100  0.79561100  0.18024200  1.0
  Al  Al1  1  0.90987900  0.20438900  0.81975800  1.0
  Al  Al2  1  0.34215000  0.68322300  0.68430000  1.0
  Al  Al3  1  0.65785000  0.31677700  0.31570000  1.0
  O  O4  1  0.16020600  0.10895300  0.32041200  1.0
  O  O5  1  0.83979400  0.89104700  0.67958800  1.0
  O  O6  1  0.49502100  0.25744200  0.99004200  1.0
  O  O7  1  0.50497900  0.74255800  0.00995800  1.0
  O  O8  1  0.82639500  0.43258800  0.65279000  1.0
  O  O9  1  0.17360500  0.56741200  0.34721000  1.0
