# generated using pymatgen
data_Al2Si4Mo3
_symmetry_space_group_name_H-M   'P 1'
_cell_length_a   4.71404639
_cell_length_b   4.72211158
_cell_length_c   6.58186846
_cell_angle_alpha   90.09683386
_cell_angle_beta   90.19400019
_cell_angle_gamma   60.05648846
_symmetry_Int_Tables_number   1
_chemical_formula_structural   Al2Si4Mo3
_chemical_formula_sum   'Al2 Si4 Mo3'
_cell_volume   126.95633125
_cell_formula_units_Z   1
loop_
 _symmetry_equiv_pos_site_id
 _symmetry_equiv_pos_as_xyz
  1  'x, y, z'
loop_
 _atom_site_type_symbol
 _atom_site_label
 _atom_site_symmetry_multiplicity
 _atom_site_fract_x
 _atom_site_fract_y
 _atom_site_fract_z
 _atom_site_occupancy
  Al  Al0  1  0.32508400  0.83456300  0.17073300  1.0
  Al  Al1  1  0.84035300  0.83456300  0.49593400  1.0
  Si  Si2  1  0.84048000  0.31904000  0.83333300  1.0
  Si  Si3  1  0.67189900  0.16695400  0.16614900  1.0
  Si  Si4  1  0.16114700  0.16695400  0.50051800  1.0
  Si  Si5  1  0.15885500  0.68229000  0.83333300  1.0
  Mo  Mo6  1  0.00066000  0.49618700  0.15728600  1.0
  Mo  Mo7  1  0.50315300  0.49618700  0.50938100  1.0
  Mo  Mo8  1  0.49836800  0.00326400  0.83333300  1.0
