# generated using pymatgen
data_Al3FeSi2
_symmetry_space_group_name_H-M   'P 1'
_cell_length_a   6.04179000
_cell_length_b   6.40911759
_cell_length_c   6.04179000
_cell_angle_alpha   118.12153212
_cell_angle_beta   89.99999999
_cell_angle_gamma   118.12153213
_symmetry_Int_Tables_number   1
_chemical_formula_structural   Al3FeSi2
_chemical_formula_sum   'Al6 Fe2 Si4'
_cell_volume   174.39671919
_cell_formula_units_Z   2
loop_
 _symmetry_equiv_pos_site_id
 _symmetry_equiv_pos_as_xyz
  1  'x, y, z'
loop_
 _atom_site_type_symbol
 _atom_site_label
 _atom_site_symmetry_multiplicity
 _atom_site_fract_x
 _atom_site_fract_y
 _atom_site_fract_z
 _atom_site_occupancy
  Al  Al0  1  0.50180000  0.00360000  0.50180000  1.0
  Al  Al1  1  0.00180000  0.00360000  0.00180000  1.0
  Al  Al2  1  0.51551200  0.71042200  0.01551200  1.0
  Al  Al3  1  0.19491000  0.71042200  0.69491000  1.0
  Al  Al4  1  0.01551200  0.71042200  0.19491000  1.0
  Al  Al5  1  0.69491000  0.71042200  0.51551200  1.0
  Fe  Fe6  1  0.24485100  0.48970200  0.24485100  1.0
  Fe  Fe7  1  0.74485100  0.48970200  0.74485100  1.0
  Si  Si8  1  0.49897700  0.29292700  0.99897700  1.0
  Si  Si9  1  0.79395000  0.29292700  0.29395000  1.0
  Si  Si10  1  0.99897700  0.29292700  0.79395000  1.0
  Si  Si11  1  0.29395000  0.29292700  0.49897700  1.0
