# generated using pymatgen
data_Al4Mo
_symmetry_space_group_name_H-M   'P 1'
_cell_length_a   5.23831366
_cell_length_b   5.27677600
_cell_length_c   9.30282286
_cell_angle_alpha   73.52412796
_cell_angle_beta   87.18352263
_cell_angle_gamma   80.02289672
_symmetry_Int_Tables_number   1
_chemical_formula_structural   Al4Mo
_chemical_formula_sum   'Al12 Mo3'
_cell_volume   242.85554888
_cell_formula_units_Z   3
loop_
 _symmetry_equiv_pos_site_id
 _symmetry_equiv_pos_as_xyz
  1  'x, y, z'
loop_
 _atom_site_type_symbol
 _atom_site_label
 _atom_site_symmetry_multiplicity
 _atom_site_fract_x
 _atom_site_fract_y
 _atom_site_fract_z
 _atom_site_occupancy
  Al  Al0  1  0.47991000  0.16239300  1.00000000  1.0
  Al  Al1  1  0.84115200  0.51746000  0.00000000  1.0
  Al  Al2  1  0.30381800  0.60101000  0.15378900  1.0
  Al  Al3  1  0.30381800  0.75479900  0.84621100  1.0
  Al  Al4  1  0.77422800  0.71620900  0.23554400  1.0
  Al  Al5  1  0.77422800  0.95175300  0.76445600  1.0
  Al  Al6  1  0.17804500  0.07869700  0.24580600  1.0
  Al  Al7  1  0.17804500  0.32450300  0.75419400  1.0
  Al  Al8  1  0.40521200  0.46995400  0.47033200  1.0
  Al  Al9  1  0.40521200  0.94028600  0.52966800  1.0
  Al  Al10  1  0.91470900  0.29180200  0.49958200  1.0
  Al  Al11  1  0.91470900  0.79138400  0.50041800  1.0
  Mo  Mo12  1  0.99749600  0.00648700  1.00000000  1.0
  Mo  Mo13  1  0.65640800  0.21131300  0.27483800  1.0
  Mo  Mo14  1  0.65640800  0.48615100  0.72516200  1.0
