# generated using pymatgen
data_AlCoO3
_symmetry_space_group_name_H-M   'P 1'
_cell_length_a   4.82762966
_cell_length_b   4.82762966
_cell_length_c   5.17564898
_cell_angle_alpha   62.20048508
_cell_angle_beta   62.20048508
_cell_angle_gamma   60.00000459
_symmetry_Int_Tables_number   1
_chemical_formula_structural   AlCoO3
_chemical_formula_sum   'Al2 Co2 O6'
_cell_volume   88.02147691
_cell_formula_units_Z   2
loop_
 _symmetry_equiv_pos_site_id
 _symmetry_equiv_pos_as_xyz
  1  'x, y, z'
loop_
 _atom_site_type_symbol
 _atom_site_label
 _atom_site_symmetry_multiplicity
 _atom_site_fract_x
 _atom_site_fract_y
 _atom_site_fract_z
 _atom_site_occupancy
  Al  Al0  1  0.85258500  0.85258500  0.44224500  1.0
  Al  Al1  1  0.14741500  0.14741500  0.55775500  1.0
  Co  Co2  1  0.34483700  0.34483700  0.96548900  1.0
  Co  Co3  1  0.65516300  0.65516300  0.03451100  1.0
  O  O4  1  0.75206100  0.44616200  0.74678300  1.0
  O  O5  1  0.94500600  0.24793900  0.25321700  1.0
  O  O6  1  0.44616200  0.05499400  0.74678300  1.0
  O  O7  1  0.55383800  0.94500600  0.25321700  1.0
  O  O8  1  0.05499400  0.75206100  0.74678300  1.0
  O  O9  1  0.24793900  0.55383800  0.25321700  1.0
