# generated using pymatgen
data_AlIn3(CuSe2)4
_symmetry_space_group_name_H-M   'P 1'
_cell_length_a   5.82957301
_cell_length_b   7.11596857
_cell_length_c   10.88786375
_cell_angle_alpha   89.77524973
_cell_angle_beta   74.47409199
_cell_angle_gamma   65.82404524
_symmetry_Int_Tables_number   1
_chemical_formula_structural   AlIn3(CuSe2)4
_chemical_formula_sum   'Al1 In3 Cu4 Se8'
_cell_volume   394.13084464
_cell_formula_units_Z   1
loop_
 _symmetry_equiv_pos_site_id
 _symmetry_equiv_pos_as_xyz
  1  'x, y, z'
loop_
 _atom_site_type_symbol
 _atom_site_label
 _atom_site_symmetry_multiplicity
 _atom_site_fract_x
 _atom_site_fract_y
 _atom_site_fract_z
 _atom_site_occupancy
  Al  Al0  1  0.62490200  0.62491500  0.12493000  1.0
  In  In1  1  0.12512700  0.12512500  0.62503800  1.0
  In  In2  1  0.75045400  0.74921300  0.75272800  1.0
  In  In3  1  0.24963200  0.25073300  0.24714100  1.0
  Cu  Cu4  1  0.37359900  0.37697600  0.87711900  1.0
  Cu  Cu5  1  0.87641500  0.87301300  0.37294500  1.0
  Cu  Cu6  1  0.99862700  0.99941100  0.00157900  1.0
  Cu  Cu7  1  0.50150000  0.50057200  0.49840500  1.0
  Se  Se8  1  0.58431600  0.31871300  0.05156500  1.0
  Se  Se9  1  0.07744800  0.79538700  0.54647200  1.0
  Se  Se10  1  0.78482800  0.58079300  0.31401200  1.0
  Se  Se11  1  0.29529700  0.07900300  0.83002900  1.0
  Se  Se12  1  0.94527100  0.68445000  0.95167000  1.0
  Se  Se13  1  0.47053400  0.18757900  0.43626100  1.0
  Se  Se14  1  0.65295700  0.43837000  0.68704400  1.0
  Se  Se15  1  0.18909400  0.91574500  0.18306000  1.0
