# generated using pymatgen
data_AlIn(AgS2)2
_symmetry_space_group_name_H-M   'P 1'
_cell_length_a   5.84335600
_cell_length_b   5.84335600
_cell_length_c   6.87686096
_cell_angle_alpha   115.14157073
_cell_angle_beta   115.14157072
_cell_angle_gamma   90.00000001
_symmetry_Int_Tables_number   1
_chemical_formula_structural   AlIn(AgS2)2
_chemical_formula_sum   'Al1 In1 Ag2 S4'
_cell_volume   187.69961641
_cell_formula_units_Z   1
loop_
 _symmetry_equiv_pos_site_id
 _symmetry_equiv_pos_as_xyz
  1  'x, y, z'
loop_
 _atom_site_type_symbol
 _atom_site_label
 _atom_site_symmetry_multiplicity
 _atom_site_fract_x
 _atom_site_fract_y
 _atom_site_fract_z
 _atom_site_occupancy
  Al  Al0  1  0.25000000  0.75000000  0.50000000  1.0
  In  In1  1  0.00000000  0.00000000  0.00000000  1.0
  Ag  Ag2  1  0.75000000  0.25000000  0.50000000  1.0
  Ag  Ag3  1  0.50000000  0.50000000  1.00000000  1.0
  S  S4  1  0.13419200  0.64407200  0.73399000  1.0
  S  S5  1  0.59979800  0.08991800  0.73399000  1.0
  S  S6  1  0.35592800  0.40020200  0.26601000  1.0
  S  S7  1  0.91008200  0.86580800  0.26601000  1.0
