# generated using pymatgen
data_AlPO4
_symmetry_space_group_name_H-M   'P 1'
_cell_length_a   5.10648700
_cell_length_b   5.13272986
_cell_length_c   8.46243000
_cell_angle_alpha   90.00000000
_cell_angle_beta   90.00000000
_cell_angle_gamma   118.80529337
_symmetry_Int_Tables_number   1
_chemical_formula_structural   AlPO4
_chemical_formula_sum   'Al2 P2 O8'
_cell_volume   194.35682218
_cell_formula_units_Z   2
loop_
 _symmetry_equiv_pos_site_id
 _symmetry_equiv_pos_as_xyz
  1  'x, y, z'
loop_
 _atom_site_type_symbol
 _atom_site_label
 _atom_site_symmetry_multiplicity
 _atom_site_fract_x
 _atom_site_fract_y
 _atom_site_fract_z
 _atom_site_occupancy
  Al  Al0  1  0.39746900  0.64721300  0.93269200  1.0
  Al  Al1  1  0.60253100  0.35278700  0.43269200  1.0
  P  P2  1  0.27439900  0.69450300  0.55819800  1.0
  P  P3  1  0.72560100  0.30549700  0.05819800  1.0
  O  O4  1  0.46245400  0.60279700  0.45295500  1.0
  O  O5  1  0.53754600  0.39720300  0.95295500  1.0
  O  O6  1  0.94014000  0.48019400  0.53423000  1.0
  O  O7  1  0.05986000  0.51980600  0.03423000  1.0
  O  O8  1  0.35154500  0.68597600  0.73211400  1.0
  O  O9  1  0.64845500  0.31402400  0.23211400  1.0
  O  O10  1  0.65864900  0.98925600  0.01311000  1.0
  O  O11  1  0.34135100  0.01074400  0.51311000  1.0
