# generated using pymatgen
data_AsPRh4
_symmetry_space_group_name_H-M   'P 1'
_cell_length_a   3.99761610
_cell_length_b   3.99761610
_cell_length_c   6.95217859
_cell_angle_alpha   73.29116775
_cell_angle_beta   73.29116775
_cell_angle_gamma   59.99999829
_symmetry_Int_Tables_number   1
_chemical_formula_structural   AsPRh4
_chemical_formula_sum   'As1 P1 Rh4'
_cell_volume   90.76039028
_cell_formula_units_Z   1
loop_
 _symmetry_equiv_pos_site_id
 _symmetry_equiv_pos_as_xyz
  1  'x, y, z'
loop_
 _atom_site_type_symbol
 _atom_site_label
 _atom_site_symmetry_multiplicity
 _atom_site_fract_x
 _atom_site_fract_y
 _atom_site_fract_z
 _atom_site_occupancy
  As  As0  1  0.50000000  0.50000000  0.50000000  1.0
  P  P1  1  0.00000000  0.00000000  0.00000000  1.0
  Rh  Rh2  1  0.62797100  0.62797100  0.11608700  1.0
  Rh  Rh3  1  0.12143200  0.12143200  0.63570400  1.0
  Rh  Rh4  1  0.87856800  0.87856800  0.36429600  1.0
  Rh  Rh5  1  0.37202900  0.37202900  0.88391300  1.0
