# generated using pymatgen
data_Ba10Ge7O3
_symmetry_space_group_name_H-M   'P 1'
_cell_length_a   5.04065500
_cell_length_b   12.08040200
_cell_length_c   12.08040285
_cell_angle_alpha   119.99999767
_cell_angle_beta   90.00000000
_cell_angle_gamma   90.00000000
_symmetry_Int_Tables_number   1
_chemical_formula_structural   Ba10Ge7O3
_chemical_formula_sum   'Ba10 Ge7 O3'
_cell_volume   637.06012049
_cell_formula_units_Z   1
loop_
 _symmetry_equiv_pos_site_id
 _symmetry_equiv_pos_as_xyz
  1  'x, y, z'
loop_
 _atom_site_type_symbol
 _atom_site_label
 _atom_site_symmetry_multiplicity
 _atom_site_fract_x
 _atom_site_fract_y
 _atom_site_fract_z
 _atom_site_occupancy
  Ba  Ba0  1  0.00000000  0.08120700  0.54060300  1.0
  Ba  Ba1  1  1.00000000  0.45939600  0.91879200  1.0
  Ba  Ba2  1  1.00000000  0.45939600  0.54060300  1.0
  Ba  Ba3  1  0.00000000  0.24972200  0.12486100  1.0
  Ba  Ba4  1  1.00000000  0.87513900  0.12486100  1.0
  Ba  Ba5  1  0.00000000  0.87513900  0.75027800  1.0
  Ba  Ba6  1  0.50000000  0.66069100  0.83034600  1.0
  Ba  Ba7  1  0.50000000  0.16965500  0.33931000  1.0
  Ba  Ba8  1  0.50000000  0.16965500  0.83034600  1.0
  Ba  Ba9  1  0.00000000  0.66666667  0.33333333  1.0
  Ge  Ge10  1  0.50000000  0.66741100  0.12317600  1.0
  Ge  Ge11  1  0.50000000  0.45576500  0.33258900  1.0
  Ge  Ge12  1  0.50000000  0.87682400  0.54423500  1.0
  Ge  Ge13  1  0.50000000  0.66741100  0.54423500  1.0
  Ge  Ge14  1  0.50000000  0.87682400  0.33258900  1.0
  Ge  Ge15  1  0.50000000  0.45576500  0.12317600  1.0
  Ge  Ge16  1  0.50000000  0.33333333  0.66666667  1.0
  O  O17  1  1.00000000  0.74135500  0.87067700  1.0
  O  O18  1  0.00000000  0.12932200  0.87067700  1.0
  O  O19  1  1.00000000  0.12932200  0.25864400  1.0
