# generated using pymatgen
data_Ba2Br2O
_symmetry_space_group_name_H-M   'P 1'
_cell_length_a   6.74507600
_cell_length_b   7.50866800
_cell_length_c   8.28913671
_cell_angle_alpha   116.93132413
_cell_angle_beta   114.00788704
_cell_angle_gamma   90.00000001
_symmetry_Int_Tables_number   1
_chemical_formula_structural   Ba2Br2O
_chemical_formula_sum   'Ba4 Br4 O2'
_cell_volume   333.03997384
_cell_formula_units_Z   2
loop_
 _symmetry_equiv_pos_site_id
 _symmetry_equiv_pos_as_xyz
  1  'x, y, z'
loop_
 _atom_site_type_symbol
 _atom_site_label
 _atom_site_symmetry_multiplicity
 _atom_site_fract_x
 _atom_site_fract_y
 _atom_site_fract_z
 _atom_site_occupancy
  Ba  Ba0  1  0.40290200  0.09058700  0.80580400  1.0
  Ba  Ba1  1  0.59709800  0.90941300  0.19419600  1.0
  Ba  Ba2  1  0.90290200  0.71521700  0.80580400  1.0
  Ba  Ba3  1  0.09709800  0.28478300  0.19419600  1.0
  Br  Br4  1  0.14731100  0.79640100  0.29462200  1.0
  Br  Br5  1  0.85268900  0.20359900  0.70537800  1.0
  Br  Br6  1  0.64731100  0.49822100  0.29462200  1.0
  Br  Br7  1  0.35268900  0.50177900  0.70537800  1.0
  O  O8  1  0.75000000  0.00000000  0.00000000  1.0
  O  O9  1  0.25000000  0.00000000  0.00000000  1.0
