# generated using pymatgen
data_Ba2CoWO6
_symmetry_space_group_name_H-M   'P 1'
_cell_length_a   5.75624699
_cell_length_b   5.75646056
_cell_length_c   5.86129804
_cell_angle_alpha   60.60175310
_cell_angle_beta   60.60234143
_cell_angle_gamma   90.01555935
_symmetry_Int_Tables_number   1
_chemical_formula_structural   Ba2CoWO6
_chemical_formula_sum   'Ba2 Co1 W1 O6'
_cell_volume   139.77699291
_cell_formula_units_Z   1
loop_
 _symmetry_equiv_pos_site_id
 _symmetry_equiv_pos_as_xyz
  1  'x, y, z'
loop_
 _atom_site_type_symbol
 _atom_site_label
 _atom_site_symmetry_multiplicity
 _atom_site_fract_x
 _atom_site_fract_y
 _atom_site_fract_z
 _atom_site_occupancy
  Ba  Ba0  1  0.25006400  0.75007600  0.49999300  1.0
  Ba  Ba1  1  0.74993600  0.24992400  0.50000700  1.0
  Co  Co2  1  0.00000000  0.00000000  0.00000000  1.0
  W  W3  1  0.50000000  0.50000000  0.00000000  1.0
  O  O4  1  0.25853300  0.25853800  0.99996600  1.0
  O  O5  1  0.73200500  0.73211300  0.53588700  1.0
  O  O6  1  0.74144200  0.25865700  0.99990700  1.0
  O  O7  1  0.25855800  0.74134300  0.00009300  1.0
  O  O8  1  0.26799600  0.26788800  0.46411200  1.0
  O  O9  1  0.74146700  0.74146200  0.00003400  1.0
