# generated using pymatgen
data_Ba2DyInSe5
_symmetry_space_group_name_H-M   'P 1'
_cell_length_a   4.32155800
_cell_length_b   9.78962828
_cell_length_c   13.51910500
_cell_angle_alpha   90.00000000
_cell_angle_beta   90.00000000
_cell_angle_gamma   102.75139905
_symmetry_Int_Tables_number   1
_chemical_formula_structural   Ba2DyInSe5
_chemical_formula_sum   'Ba4 Dy2 In2 Se10'
_cell_volume   557.83936528
_cell_formula_units_Z   2
loop_
 _symmetry_equiv_pos_site_id
 _symmetry_equiv_pos_as_xyz
  1  'x, y, z'
loop_
 _atom_site_type_symbol
 _atom_site_label
 _atom_site_symmetry_multiplicity
 _atom_site_fract_x
 _atom_site_fract_y
 _atom_site_fract_z
 _atom_site_occupancy
  Ba  Ba0  1  0.86750900  0.73501800  0.18625800  1.0
  Ba  Ba1  1  0.13249100  0.26498200  0.68625800  1.0
  Ba  Ba2  1  0.88280600  0.76561200  0.81867800  1.0
  Ba  Ba3  1  0.11719400  0.23438800  0.31867800  1.0
  Dy  Dy4  1  0.78868500  0.57737000  0.48208100  1.0
  Dy  Dy5  1  0.21131500  0.42263000  0.98208100  1.0
  In  In6  1  0.55238700  0.10477400  0.06295500  1.0
  In  In7  1  0.44761300  0.89522600  0.56295500  1.0
  Se  Se8  1  0.64383500  0.28767000  0.49950600  1.0
  Se  Se9  1  0.35616500  0.71233000  0.99950600  1.0
  Se  Se10  1  0.70903900  0.41807800  0.84316400  1.0
  Se  Se11  1  0.29096100  0.58192200  0.34316400  1.0
  Se  Se12  1  0.68714500  0.37429000  0.13028200  1.0
  Se  Se13  1  0.31285500  0.62571000  0.63028200  1.0
  Se  Se14  1  0.49502000  0.99004000  0.23414300  1.0
  Se  Se15  1  0.50498000  0.00996000  0.73414300  1.0
  Se  Se16  1  0.94948100  0.89896200  0.44921300  1.0
  Se  Se17  1  0.05051900  0.10103800  0.94921300  1.0
