# generated using pymatgen
data_Ba2FeMoO6
_symmetry_space_group_name_H-M   'P 1'
_cell_length_a   5.72858470
_cell_length_b   5.77735351
_cell_length_c   5.78492057
_cell_angle_alpha   60.30435177
_cell_angle_beta   60.41137708
_cell_angle_gamma   60.52996267
_symmetry_Int_Tables_number   1
_chemical_formula_structural   Ba2FeMoO6
_chemical_formula_sum   'Ba2 Fe1 Mo1 O6'
_cell_volume   136.65139580
_cell_formula_units_Z   1
loop_
 _symmetry_equiv_pos_site_id
 _symmetry_equiv_pos_as_xyz
  1  'x, y, z'
loop_
 _atom_site_type_symbol
 _atom_site_label
 _atom_site_symmetry_multiplicity
 _atom_site_fract_x
 _atom_site_fract_y
 _atom_site_fract_z
 _atom_site_occupancy
  Ba  Ba0  1  0.24989600  0.25017900  0.25018100  1.0
  Ba  Ba1  1  0.75010400  0.74982100  0.74981900  1.0
  Fe  Fe2  1  0.99999900  0.00000100  0.00000100  1.0
  Mo  Mo3  1  0.49999900  0.50000100  0.50000000  1.0
  O  O4  1  0.25051400  0.74916100  0.74918900  1.0
  O  O5  1  0.74948700  0.25083900  0.25081000  1.0
  O  O6  1  0.74326600  0.74591900  0.25373400  1.0
  O  O7  1  0.25605500  0.74693900  0.25337400  1.0
  O  O8  1  0.25673500  0.25408000  0.74626600  1.0
  O  O9  1  0.74394500  0.25306100  0.74662600  1.0
