# generated using pymatgen
data_Ba2Ho(CuO2)4
_symmetry_space_group_name_H-M   'P 1'
_cell_length_a   3.87946000
_cell_length_b   3.89434800
_cell_length_c   13.87398175
_cell_angle_alpha   98.06793566
_cell_angle_beta   90.00000000
_cell_angle_gamma   90.00000000
_symmetry_Int_Tables_number   1
_chemical_formula_structural   Ba2Ho(CuO2)4
_chemical_formula_sum   'Ba2 Ho1 Cu4 O8'
_cell_volume   207.53304035
_cell_formula_units_Z   1
loop_
 _symmetry_equiv_pos_site_id
 _symmetry_equiv_pos_as_xyz
  1  'x, y, z'
loop_
 _atom_site_type_symbol
 _atom_site_label
 _atom_site_symmetry_multiplicity
 _atom_site_fract_x
 _atom_site_fract_y
 _atom_site_fract_z
 _atom_site_occupancy
  Ba  Ba0  1  0.50000000  0.36445300  0.72890600  1.0
  Ba  Ba1  1  0.50000000  0.63554700  0.27109400  1.0
  Ho  Ho2  1  0.50000000  0.50000000  0.00000000  1.0
  Cu  Cu3  1  0.00000000  0.93908300  0.87816600  1.0
  Cu  Cu4  1  1.00000000  0.06091700  0.12183400  1.0
  Cu  Cu5  1  0.00000000  0.78739700  0.57479400  1.0
  Cu  Cu6  1  1.00000000  0.21260300  0.42520600  1.0
  O  O7  1  1.00000000  0.28154500  0.56309000  1.0
  O  O8  1  1.00000000  0.71845500  0.43691000  1.0
  O  O9  1  1.00000000  0.44850800  0.89701600  1.0
  O  O10  1  0.00000000  0.55149200  0.10298400  1.0
  O  O11  1  0.50000000  0.94839000  0.89678000  1.0
  O  O12  1  0.50000000  0.05161000  0.10322000  1.0
  O  O13  1  0.00000000  0.85475100  0.70950200  1.0
  O  O14  1  1.00000000  0.14524900  0.29049800  1.0
