# generated using pymatgen
data_Ba2I2O
_symmetry_space_group_name_H-M   'P 1'
_cell_length_a   6.91644000
_cell_length_b   7.72003400
_cell_length_c   8.76299366
_cell_angle_alpha   116.13519236
_cell_angle_beta   113.24346804
_cell_angle_gamma   90.00000001
_symmetry_Int_Tables_number   1
_chemical_formula_structural   Ba2I2O
_chemical_formula_sum   'Ba4 I4 O2'
_cell_volume   377.30028856
_cell_formula_units_Z   2
loop_
 _symmetry_equiv_pos_site_id
 _symmetry_equiv_pos_as_xyz
  1  'x, y, z'
loop_
 _atom_site_type_symbol
 _atom_site_label
 _atom_site_symmetry_multiplicity
 _atom_site_fract_x
 _atom_site_fract_y
 _atom_site_fract_z
 _atom_site_occupancy
  Ba  Ba0  1  0.59290300  0.76714000  0.18580600  1.0
  Ba  Ba1  1  0.40709700  0.23286000  0.81419400  1.0
  Ba  Ba2  1  0.90709700  0.58133400  0.81419400  1.0
  Ba  Ba3  1  0.09290300  0.41866600  0.18580600  1.0
  I  I4  1  0.65003500  0.30710900  0.30007000  1.0
  I  I5  1  0.15003500  0.99296100  0.30007000  1.0
  I  I6  1  0.84996500  0.00703900  0.69993000  1.0
  I  I7  1  0.34996500  0.69289100  0.69993000  1.0
  O  O8  1  0.25000000  0.50000000  1.00000000  1.0
  O  O9  1  0.75000000  0.50000000  0.00000000  1.0
