# generated using pymatgen
data_Ba2Li3TaN4
_symmetry_space_group_name_H-M   'P 1'
_cell_length_a   5.71871800
_cell_length_b   6.36165554
_cell_length_c   10.16647499
_cell_angle_alpha   81.17336890
_cell_angle_beta   73.66495459
_cell_angle_gamma   63.29045954
_symmetry_Int_Tables_number   1
_chemical_formula_structural   Ba2Li3TaN4
_chemical_formula_sum   'Ba4 Li6 Ta2 N8'
_cell_volume   316.90146624
_cell_formula_units_Z   2
loop_
 _symmetry_equiv_pos_site_id
 _symmetry_equiv_pos_as_xyz
  1  'x, y, z'
loop_
 _atom_site_type_symbol
 _atom_site_label
 _atom_site_symmetry_multiplicity
 _atom_site_fract_x
 _atom_site_fract_y
 _atom_site_fract_z
 _atom_site_occupancy
  Ba  Ba0  1  0.62872400  0.19422200  0.11171700  1.0
  Ba  Ba1  1  0.37127600  0.80577800  0.88828300  1.0
  Ba  Ba2  1  0.93466300  0.30577800  0.38828300  1.0
  Ba  Ba3  1  0.06533700  0.69422200  0.61171700  1.0
  Li  Li4  1  0.61563800  0.75000000  0.25000000  1.0
  Li  Li5  1  0.38436200  0.25000000  0.75000000  1.0
  Li  Li6  1  0.11735000  0.30996200  0.04235600  1.0
  Li  Li7  1  0.46966800  0.19003800  0.45764400  1.0
  Li  Li8  1  0.53033200  0.80996200  0.54235600  1.0
  Li  Li9  1  0.88265000  0.69003800  0.95764400  1.0
  Ta  Ta10  1  0.13746800  0.75000000  0.25000000  1.0
  Ta  Ta11  1  0.86253200  0.25000000  0.75000000  1.0
  N  N12  1  0.20659400  0.11065600  0.61272900  1.0
  N  N13  1  0.41740200  0.50864100  0.33764300  1.0
  N  N14  1  0.58259800  0.49135900  0.66235700  1.0
  N  N15  1  0.26368600  0.99135900  0.16235700  1.0
  N  N16  1  0.07002100  0.61065600  0.11272900  1.0
  N  N17  1  0.73631400  0.00864100  0.83764300  1.0
  N  N18  1  0.79340600  0.88934400  0.38727100  1.0
  N  N19  1  0.92997900  0.38934400  0.88727100  1.0
