# generated using pymatgen
data_Ba2Mn2Sb2O
_symmetry_space_group_name_H-M   'P 1'
_cell_length_a   4.80192758
_cell_length_b   4.80192485
_cell_length_c   20.28063000
_cell_angle_alpha   90.00001617
_cell_angle_beta   90.00000424
_cell_angle_gamma   119.99994785
_symmetry_Int_Tables_number   1
_chemical_formula_structural   Ba2Mn2Sb2O
_chemical_formula_sum   'Ba4 Mn4 Sb4 O2'
_cell_volume   404.98903673
_cell_formula_units_Z   2
loop_
 _symmetry_equiv_pos_site_id
 _symmetry_equiv_pos_as_xyz
  1  'x, y, z'
loop_
 _atom_site_type_symbol
 _atom_site_label
 _atom_site_symmetry_multiplicity
 _atom_site_fract_x
 _atom_site_fract_y
 _atom_site_fract_z
 _atom_site_occupancy
  Ba  Ba0  1  0.00000000  0.00000000  0.50000300  1.0
  Ba  Ba1  1  0.99999800  0.99999900  0.00000300  1.0
  Ba  Ba2  1  0.99999800  0.99999900  0.25000500  1.0
  Ba  Ba3  1  0.99999900  0.00000000  0.75000500  1.0
  Mn  Mn4  1  0.33333333  0.66666667  0.64906700  1.0
  Mn  Mn5  1  0.66666667  0.33333333  0.14907000  1.0
  Mn  Mn6  1  0.33333333  0.66666667  0.85090500  1.0
  Mn  Mn7  1  0.66666667  0.33333333  0.35090700  1.0
  Sb  Sb8  1  0.33333333  0.66666667  0.38857000  1.0
  Sb  Sb9  1  0.33333333  0.66666667  0.11143600  1.0
  Sb  Sb10  1  0.66666667  0.33333333  0.61143600  1.0
  Sb  Sb11  1  0.66666667  0.33333333  0.88857000  1.0
  O  O12  1  0.33333333  0.66666667  0.75001200  1.0
  O  O13  1  0.66666667  0.33333333  0.25001300  1.0
