# generated using pymatgen
data_Ba2MnO4
_symmetry_space_group_name_H-M   'P 1'
_cell_length_a   4.05914503
_cell_length_b   4.05922803
_cell_length_c   7.24369857
_cell_angle_alpha   106.27552666
_cell_angle_beta   106.27512490
_cell_angle_gamma   89.98652011
_symmetry_Int_Tables_number   1
_chemical_formula_structural   Ba2MnO4
_chemical_formula_sum   'Ba2 Mn1 O4'
_cell_volume   109.58221478
_cell_formula_units_Z   1
loop_
 _symmetry_equiv_pos_site_id
 _symmetry_equiv_pos_as_xyz
  1  'x, y, z'
loop_
 _atom_site_type_symbol
 _atom_site_label
 _atom_site_symmetry_multiplicity
 _atom_site_fract_x
 _atom_site_fract_y
 _atom_site_fract_z
 _atom_site_occupancy
  Ba  Ba0  1  0.35774500  0.35774500  0.71549000  1.0
  Ba  Ba1  1  0.64225500  0.64225500  0.28451000  1.0
  Mn  Mn2  1  0.00000000  0.00000000  0.00000000  1.0
  O  O3  1  0.50000000  1.00000000  1.00000000  1.0
  O  O4  1  0.14819700  0.14819700  0.29639400  1.0
  O  O5  1  0.85180300  0.85180300  0.70360600  1.0
  O  O6  1  0.00000000  0.50000000  1.00000000  1.0
