# generated using pymatgen
data_Ba2ScO3F
_symmetry_space_group_name_H-M   'P 1'
_cell_length_a   4.18138800
_cell_length_b   4.18138800
_cell_length_c   7.50501856
_cell_angle_alpha   106.17504314
_cell_angle_beta   106.17504314
_cell_angle_gamma   90.00000000
_symmetry_Int_Tables_number   1
_chemical_formula_structural   Ba2ScO3F
_chemical_formula_sum   'Ba2 Sc1 O3 F1'
_cell_volume   120.60580727
_cell_formula_units_Z   1
loop_
 _symmetry_equiv_pos_site_id
 _symmetry_equiv_pos_as_xyz
  1  'x, y, z'
loop_
 _atom_site_type_symbol
 _atom_site_label
 _atom_site_symmetry_multiplicity
 _atom_site_fract_x
 _atom_site_fract_y
 _atom_site_fract_z
 _atom_site_occupancy
  Ba  Ba0  1  0.63515200  0.63515200  0.27030400  1.0
  Ba  Ba1  1  0.36158700  0.36158700  0.72317400  1.0
  Sc  Sc2  1  0.98551900  0.98551900  0.97103800  1.0
  O  O3  1  0.00585600  0.50585600  0.01171200  1.0
  O  O4  1  0.50585600  0.00585600  0.01171200  1.0
  O  O5  1  0.83876600  0.83876600  0.67753200  1.0
  F  F6  1  0.16726500  0.16726500  0.33453000  1.0
