# generated using pymatgen
data_Ba2Tl3Au
_symmetry_space_group_name_H-M   'P 1'
_cell_length_a   5.25513000
_cell_length_b   6.59410725
_cell_length_c   6.87185147
_cell_angle_alpha   76.47859340
_cell_angle_beta   67.51966080
_cell_angle_gamma   66.51732942
_symmetry_Int_Tables_number   1
_chemical_formula_structural   Ba2Tl3Au
_chemical_formula_sum   'Ba2 Tl3 Au1'
_cell_volume   200.87703090
_cell_formula_units_Z   1
loop_
 _symmetry_equiv_pos_site_id
 _symmetry_equiv_pos_as_xyz
  1  'x, y, z'
loop_
 _atom_site_type_symbol
 _atom_site_label
 _atom_site_symmetry_multiplicity
 _atom_site_fract_x
 _atom_site_fract_y
 _atom_site_fract_z
 _atom_site_occupancy
  Ba  Ba0  1  0.04116900  0.20974000  0.70792200  1.0
  Ba  Ba1  1  0.95819700  0.78777600  0.29583100  1.0
  Tl  Tl2  1  0.65304000  0.39176100  0.30215900  1.0
  Tl  Tl3  1  0.67873300  0.76013000  0.88240300  1.0
  Tl  Tl4  1  0.33677600  0.22125100  0.10519700  1.0
  Au  Au5  1  0.33208500  0.62934200  0.70648800  1.0
