# generated using pymatgen
data_Ba3(CdSb2)2
_symmetry_space_group_name_H-M   'P 1'
_cell_length_a   4.93841200
_cell_length_b   7.82919625
_cell_length_c   9.40844835
_cell_angle_alpha   111.25261578
_cell_angle_beta   105.21522582
_cell_angle_gamma   90.00000000
_symmetry_Int_Tables_number   1
_chemical_formula_structural   Ba3(CdSb2)2
_chemical_formula_sum   'Ba3 Cd2 Sb4'
_cell_volume   325.30761613
_cell_formula_units_Z   1
loop_
 _symmetry_equiv_pos_site_id
 _symmetry_equiv_pos_as_xyz
  1  'x, y, z'
loop_
 _atom_site_type_symbol
 _atom_site_label
 _atom_site_symmetry_multiplicity
 _atom_site_fract_x
 _atom_site_fract_y
 _atom_site_fract_z
 _atom_site_occupancy
  Ba  Ba0  1  0.14209100  0.59064900  0.28418200  1.0
  Ba  Ba1  1  0.85790900  0.40935100  0.71581800  1.0
  Ba  Ba2  1  0.00000000  0.00000000  0.00000000  1.0
  Cd  Cd3  1  0.66813100  0.97165900  0.33626200  1.0
  Cd  Cd4  1  0.33186900  0.02834100  0.66373800  1.0
  Sb  Sb5  1  0.50212300  0.68549900  0.00424600  1.0
  Sb  Sb6  1  0.20755200  0.19736100  0.41510400  1.0
  Sb  Sb7  1  0.49787700  0.31450100  0.99575400  1.0
  Sb  Sb8  1  0.79244800  0.80263900  0.58489600  1.0
