# generated using pymatgen
data_Ba3P4
_symmetry_space_group_name_H-M   'P 1'
_cell_length_a   6.23987200
_cell_length_b   8.13218226
_cell_length_c   9.72635790
_cell_angle_alpha   82.93098309
_cell_angle_beta   71.29042668
_cell_angle_gamma   67.43985863
_symmetry_Int_Tables_number   1
_chemical_formula_structural   Ba3P4
_chemical_formula_sum   'Ba6 P8'
_cell_volume   431.69906160
_cell_formula_units_Z   2
loop_
 _symmetry_equiv_pos_site_id
 _symmetry_equiv_pos_as_xyz
  1  'x, y, z'
loop_
 _atom_site_type_symbol
 _atom_site_label
 _atom_site_symmetry_multiplicity
 _atom_site_fract_x
 _atom_site_fract_y
 _atom_site_fract_z
 _atom_site_occupancy
  Ba  Ba0  1  0.59153200  0.99087900  0.33717400  1.0
  Ba  Ba1  1  0.91958500  0.00912100  0.66282600  1.0
  Ba  Ba2  1  0.33241100  0.50912100  0.83717400  1.0
  Ba  Ba3  1  0.67870600  0.49087900  0.16282600  1.0
  Ba  Ba4  1  0.00361900  0.50000000  0.50000000  1.0
  Ba  Ba5  1  0.25361900  0.00000000  0.00000000  1.0
  P  P6  1  0.42011500  0.65550000  0.49391500  1.0
  P  P7  1  0.56953000  0.34450000  0.50608500  1.0
  P  P8  1  0.82561500  0.84450000  0.99391500  1.0
  P  P9  1  0.66403000  0.15550000  0.00608500  1.0
  P  P10  1  0.34883300  0.19366000  0.65165400  1.0
  P  P11  1  0.19414800  0.80633900  0.34834500  1.0
  P  P12  1  0.75048600  0.69366100  0.84834600  1.0
  P  P13  1  0.29249200  0.30634000  0.15165500  1.0
