# generated using pymatgen
data_Ba3ThSe7
_symmetry_space_group_name_H-M   'P 1'
_cell_length_a   5.89299200
_cell_length_b   8.48060825
_cell_length_c   8.48060825
_cell_angle_alpha   69.29595410
_cell_angle_beta   69.66923327
_cell_angle_gamma   69.66923326
_symmetry_Int_Tables_number   1
_chemical_formula_structural   Ba3ThSe7
_chemical_formula_sum   'Ba3 Th1 Se7'
_cell_volume   359.36420329
_cell_formula_units_Z   1
loop_
 _symmetry_equiv_pos_site_id
 _symmetry_equiv_pos_as_xyz
  1  'x, y, z'
loop_
 _atom_site_type_symbol
 _atom_site_label
 _atom_site_symmetry_multiplicity
 _atom_site_fract_x
 _atom_site_fract_y
 _atom_site_fract_z
 _atom_site_occupancy
  Ba  Ba0  1  0.76071400  0.62348600  0.85508600  1.0
  Ba  Ba1  1  0.23928600  0.14491400  0.37651400  1.0
  Ba  Ba2  1  0.50000000  0.59237400  0.40762600  1.0
  Th  Th3  1  1.00000000  0.99987900  0.00012100  1.0
  Se  Se4  1  0.90491900  0.80112800  0.38903400  1.0
  Se  Se5  1  0.09508100  0.61096600  0.19887200  1.0
  Se  Se6  1  0.20430100  0.28930800  0.71069100  1.0
  Se  Se7  1  0.79570000  0.28930900  0.71069100  1.0
  Se  Se8  1  0.76763600  0.27295200  0.19177600  1.0
  Se  Se9  1  0.23236300  0.80822400  0.72704900  1.0
  Se  Se10  1  0.50000000  0.94214000  0.05786000  1.0
