# generated using pymatgen
data_Ba3Y4O9
_symmetry_space_group_name_H-M   'P 1'
_cell_length_a   6.16072823
_cell_length_b   6.16072823
_cell_length_c   9.27691131
_cell_angle_alpha   70.60697461
_cell_angle_beta   70.60697461
_cell_angle_gamma   59.99999750
_symmetry_Int_Tables_number   1
_chemical_formula_structural   Ba3Y4O9
_chemical_formula_sum   'Ba3 Y4 O9'
_cell_volume   281.62488765
_cell_formula_units_Z   1
loop_
 _symmetry_equiv_pos_site_id
 _symmetry_equiv_pos_as_xyz
  1  'x, y, z'
loop_
 _atom_site_type_symbol
 _atom_site_label
 _atom_site_symmetry_multiplicity
 _atom_site_fract_x
 _atom_site_fract_y
 _atom_site_fract_z
 _atom_site_occupancy
  Ba  Ba0  1  0.41645400  0.41645400  0.75063800  1.0
  Ba  Ba1  1  0.83521200  0.83521200  0.49436400  1.0
  Ba  Ba2  1  0.00172000  0.00172000  0.99484000  1.0
  Y  Y3  1  0.70038100  0.70038100  0.89885700  1.0
  Y  Y4  1  0.26227700  0.26227700  0.21316900  1.0
  Y  Y5  1  0.13686400  0.13686400  0.58940800  1.0
  Y  Y6  1  0.57473000  0.57473000  0.27581000  1.0
  O  O7  1  0.96163500  0.41959400  0.07471400  1.0
  O  O8  1  0.54405700  0.96163500  0.07471400  1.0
  O  O9  1  0.41959400  0.54405700  0.07471400  1.0
  O  O10  1  0.87759100  0.29044800  0.41159600  1.0
  O  O11  1  0.42036500  0.87759100  0.41159600  1.0
  O  O12  1  0.29044800  0.42036500  0.41159600  1.0
  O  O13  1  0.85407800  0.41809900  0.74432700  1.0
  O  O14  1  0.41809900  0.98349600  0.74432700  1.0
  O  O15  1  0.98349600  0.85407800  0.74432700  1.0
