# generated using pymatgen
data_Ba4CeMn3O12
_symmetry_space_group_name_H-M   'P 1'
_cell_length_a   5.88907997
_cell_length_b   5.88907997
_cell_length_c   10.32576641
_cell_angle_alpha   73.43132378
_cell_angle_beta   73.43132378
_cell_angle_gamma   60.00000032
_symmetry_Int_Tables_number   1
_chemical_formula_structural   Ba4CeMn3O12
_chemical_formula_sum   'Ba4 Ce1 Mn3 O12'
_cell_volume   292.83755849
_cell_formula_units_Z   1
loop_
 _symmetry_equiv_pos_site_id
 _symmetry_equiv_pos_as_xyz
  1  'x, y, z'
loop_
 _atom_site_type_symbol
 _atom_site_label
 _atom_site_symmetry_multiplicity
 _atom_site_fract_x
 _atom_site_fract_y
 _atom_site_fract_z
 _atom_site_occupancy
  Ba  Ba0  1  0.28148700  0.28148700  0.15553900  1.0
  Ba  Ba1  1  0.13083400  0.13083400  0.60749800  1.0
  Ba  Ba2  1  0.71851300  0.71851300  0.84446100  1.0
  Ba  Ba3  1  0.86916600  0.86916600  0.39250200  1.0
  Ce  Ce4  1  0.00000000  0.00000000  0.00000000  1.0
  Mn  Mn5  1  0.41254000  0.41254000  0.76238000  1.0
  Mn  Mn6  1  0.58746000  0.58746000  0.23762000  1.0
  Mn  Mn7  1  0.50000000  0.50000000  0.50000000  1.0
  O  O8  1  0.77948300  0.77948300  0.13333600  1.0
  O  O9  1  0.22051700  0.22051700  0.86666400  1.0
  O  O10  1  0.30769800  0.77948300  0.13333600  1.0
  O  O11  1  0.39563300  0.83514700  0.37358700  1.0
  O  O12  1  0.69230200  0.22051700  0.86666400  1.0
  O  O13  1  0.83514700  0.39563300  0.37358700  1.0
  O  O14  1  0.39563300  0.39563300  0.37358700  1.0
  O  O15  1  0.16485300  0.60436700  0.62641300  1.0
  O  O16  1  0.60436700  0.60436700  0.62641300  1.0
  O  O17  1  0.77948300  0.30769800  0.13333600  1.0
  O  O18  1  0.60436700  0.16485300  0.62641300  1.0
  O  O19  1  0.22051700  0.69230200  0.86666400  1.0
