# generated using pymatgen
data_Ba6Br2N3Cl
_symmetry_space_group_name_H-M   'P 1'
_cell_length_a   4.18556800
_cell_length_b   8.26487371
_cell_length_c   11.07420608
_cell_angle_alpha   106.68967266
_cell_angle_beta   100.89316160
_cell_angle_gamma   90.00000000
_symmetry_Int_Tables_number   1
_chemical_formula_structural   Ba6Br2N3Cl
_chemical_formula_sum   'Ba6 Br2 N3 Cl1'
_cell_volume   359.74173172
_cell_formula_units_Z   1
loop_
 _symmetry_equiv_pos_site_id
 _symmetry_equiv_pos_as_xyz
  1  'x, y, z'
loop_
 _atom_site_type_symbol
 _atom_site_label
 _atom_site_symmetry_multiplicity
 _atom_site_fract_x
 _atom_site_fract_y
 _atom_site_fract_z
 _atom_site_occupancy
  Ba  Ba0  1  0.07595600  0.68827200  0.15191200  1.0
  Ba  Ba1  1  0.74290000  0.68662400  0.48580000  1.0
  Ba  Ba2  1  0.41056100  0.68982500  0.82112200  1.0
  Ba  Ba3  1  0.92404400  0.31172800  0.84808800  1.0
  Ba  Ba4  1  0.58943900  0.31017500  0.17887800  1.0
  Ba  Ba5  1  0.25710000  0.31337600  0.51420000  1.0
  Br  Br6  1  0.66661800  0.00001300  0.33323600  1.0
  Br  Br7  1  0.33333333  0.99998700  0.66666667  1.0
  N  N8  1  0.50000000  0.50000000  0.00000000  1.0
  N  N9  1  0.16651400  0.49987900  0.33302800  1.0
  N  N10  1  0.83348600  0.50012100  0.66697200  1.0
  Cl  Cl11  1  0.00000000  0.00000000  0.00000000  1.0
