# generated using pymatgen
data_BaCa(GaO2)4
_symmetry_space_group_name_H-M   'P 1'
_cell_length_a   5.23942400
_cell_length_b   6.76962977
_cell_length_c   6.76962977
_cell_angle_alpha   76.00734127
_cell_angle_beta   67.23327763
_cell_angle_gamma   67.23327763
_symmetry_Int_Tables_number   1
_chemical_formula_structural   BaCa(GaO2)4
_chemical_formula_sum   'Ba1 Ca1 Ga4 O8'
_cell_volume   202.95434076
_cell_formula_units_Z   1
loop_
 _symmetry_equiv_pos_site_id
 _symmetry_equiv_pos_as_xyz
  1  'x, y, z'
loop_
 _atom_site_type_symbol
 _atom_site_label
 _atom_site_symmetry_multiplicity
 _atom_site_fract_x
 _atom_site_fract_y
 _atom_site_fract_z
 _atom_site_occupancy
  Ba  Ba0  1  0.99463000  1.00000000  1.00000000  1.0
  Ca  Ca1  1  0.06783300  0.50000000  0.50000000  1.0
  Ga  Ga2  1  0.70634700  0.54180500  0.12447800  1.0
  Ga  Ga3  1  0.37263000  0.87552300  0.45819500  1.0
  Ga  Ga4  1  0.37263100  0.45819500  0.87552200  1.0
  Ga  Ga5  1  0.70634800  0.12447700  0.54180500  1.0
  O  O6  1  0.06204200  0.12867000  0.54012900  1.0
  O  O7  1  0.73084000  0.87133100  0.45987100  1.0
  O  O8  1  0.42576300  0.80897100  0.19102900  1.0
  O  O9  1  0.42576300  0.19102900  0.80897100  1.0
  O  O10  1  0.73084100  0.45987100  0.87133000  1.0
  O  O11  1  0.06204100  0.54013000  0.12867000  1.0
  O  O12  1  0.24057600  0.67081900  0.67081900  1.0
  O  O13  1  0.58221400  0.32918100  0.32918100  1.0
