# generated using pymatgen
data_BaCa2I6
_symmetry_space_group_name_H-M   'P 1'
_cell_length_a   7.68349800
_cell_length_b   8.73252284
_cell_length_c   13.13591937
_cell_angle_alpha   93.73704365
_cell_angle_beta   107.00537237
_cell_angle_gamma   90.00000000
_symmetry_Int_Tables_number   1
_chemical_formula_structural   BaCa2I6
_chemical_formula_sum   'Ba2 Ca4 I12'
_cell_volume   840.87599448
_cell_formula_units_Z   2
loop_
 _symmetry_equiv_pos_site_id
 _symmetry_equiv_pos_as_xyz
  1  'x, y, z'
loop_
 _atom_site_type_symbol
 _atom_site_label
 _atom_site_symmetry_multiplicity
 _atom_site_fract_x
 _atom_site_fract_y
 _atom_site_fract_z
 _atom_site_occupancy
  Ba  Ba0  1  0.74939400  0.25000000  0.00000000  1.0
  Ba  Ba1  1  0.25060600  0.75000000  0.00000000  1.0
  Ca  Ca2  1  0.40341300  0.12946100  0.34677100  1.0
  Ca  Ca3  1  0.94335800  0.62946100  0.34677100  1.0
  Ca  Ca4  1  0.05664200  0.37053900  0.65322900  1.0
  Ca  Ca5  1  0.59658700  0.87053900  0.65322900  1.0
  I  I6  1  0.49368700  0.08101600  0.13649400  1.0
  I  I7  1  0.64280700  0.58101600  0.13649400  1.0
  I  I8  1  0.13429500  0.38244100  0.22524100  1.0
  I  I9  1  0.09094600  0.88244100  0.22524100  1.0
  I  I10  1  0.75936400  0.35677700  0.43453500  1.0
  I  I11  1  0.67517100  0.85677700  0.43453500  1.0
  I  I12  1  0.32482900  0.14322300  0.56546500  1.0
  I  I13  1  0.24063600  0.64322300  0.56546500  1.0
  I  I14  1  0.90905400  0.11755900  0.77475900  1.0
  I  I15  1  0.86570500  0.61755900  0.77475900  1.0
  I  I16  1  0.35719300  0.41898400  0.86350600  1.0
  I  I17  1  0.50631300  0.91898400  0.86350600  1.0
