# generated using pymatgen
data_BaCuN
_symmetry_space_group_name_H-M   'P 1'
_cell_length_a   5.61671000
_cell_length_b   7.80897563
_cell_length_c   9.56267033
_cell_angle_alpha   101.96084962
_cell_angle_beta   90.00000000
_cell_angle_gamma   111.07757777
_symmetry_Int_Tables_number   1
_chemical_formula_structural   BaCuN
_chemical_formula_sum   'Ba6 Cu6 N6'
_cell_volume   381.58890591
_cell_formula_units_Z   6
loop_
 _symmetry_equiv_pos_site_id
 _symmetry_equiv_pos_as_xyz
  1  'x, y, z'
loop_
 _atom_site_type_symbol
 _atom_site_label
 _atom_site_symmetry_multiplicity
 _atom_site_fract_x
 _atom_site_fract_y
 _atom_site_fract_z
 _atom_site_occupancy
  Ba  Ba0  1  0.71770700  0.00000000  0.75000000  1.0
  Ba  Ba1  1  0.28229300  0.00000000  0.25000000  1.0
  Ba  Ba2  1  0.06954300  0.66348400  0.87108400  1.0
  Ba  Ba3  1  0.40605900  0.33651600  0.62891600  1.0
  Ba  Ba4  1  0.93045700  0.33651600  0.12891600  1.0
  Ba  Ba5  1  0.59394100  0.66348400  0.37108400  1.0
  Cu  Cu6  1  0.69390600  0.85235100  0.05946900  1.0
  Cu  Cu7  1  0.84155500  0.14764900  0.44053100  1.0
  Cu  Cu8  1  0.30609400  0.14764900  0.94053100  1.0
  Cu  Cu9  1  0.15844500  0.85235100  0.55946900  1.0
  Cu  Cu10  1  0.50000000  0.50000000  0.00000000  1.0
  Cu  Cu11  1  1.00000000  0.50000000  0.50000000  1.0
  N  N12  1  0.00000000  0.00000000  0.50000000  1.0
  N  N13  1  0.00000000  0.00000000  0.00000000  1.0
  N  N14  1  0.29903700  0.68249400  0.60624700  1.0
  N  N15  1  0.61654300  0.31750600  0.89375300  1.0
  N  N16  1  0.70096300  0.31750600  0.39375300  1.0
  N  N17  1  0.38345700  0.68249400  0.10624700  1.0
