# generated using pymatgen
data_BaGdCuS3
_symmetry_space_group_name_H-M   'P 1'
_cell_length_a   4.05074400
_cell_length_b   7.08408224
_cell_length_c   10.37021500
_cell_angle_alpha   90.00000000
_cell_angle_beta   90.00000000
_cell_angle_gamma   106.61293099
_symmetry_Int_Tables_number   1
_chemical_formula_structural   BaGdCuS3
_chemical_formula_sum   'Ba2 Gd2 Cu2 S6'
_cell_volume   285.16002173
_cell_formula_units_Z   2
loop_
 _symmetry_equiv_pos_site_id
 _symmetry_equiv_pos_as_xyz
  1  'x, y, z'
loop_
 _atom_site_type_symbol
 _atom_site_label
 _atom_site_symmetry_multiplicity
 _atom_site_fract_x
 _atom_site_fract_y
 _atom_site_fract_z
 _atom_site_occupancy
  Ba  Ba0  1  0.74417700  0.48835400  0.75000000  1.0
  Ba  Ba1  1  0.25582300  0.51164600  0.25000000  1.0
  Gd  Gd2  1  0.00000000  0.00000000  0.50000000  1.0
  Gd  Gd3  1  0.00000000  0.00000000  0.00000000  1.0
  Cu  Cu4  1  0.46621500  0.93243000  0.75000000  1.0
  Cu  Cu5  1  0.53378500  0.06757000  0.25000000  1.0
  S  S6  1  0.36787500  0.73575000  0.56594900  1.0
  S  S7  1  0.63212500  0.26425000  0.43405100  1.0
  S  S8  1  0.36787500  0.73575000  0.93405100  1.0
  S  S9  1  0.63212500  0.26425000  0.06594900  1.0
  S  S10  1  0.06657300  0.13314600  0.75000000  1.0
  S  S11  1  0.93342700  0.86685400  0.25000000  1.0
