# generated using pymatgen
data_BaMnO3
_symmetry_space_group_name_H-M   'P 1'
_cell_length_a   4.93412600
_cell_length_b   5.80046697
_cell_length_c   5.80047343
_cell_angle_alpha   119.99385442
_cell_angle_beta   89.99999195
_cell_angle_gamma   89.99991221
_symmetry_Int_Tables_number   1
_chemical_formula_structural   BaMnO3
_chemical_formula_sum   'Ba2 Mn2 O6'
_cell_volume   143.77856954
_cell_formula_units_Z   2
loop_
 _symmetry_equiv_pos_site_id
 _symmetry_equiv_pos_as_xyz
  1  'x, y, z'
loop_
 _atom_site_type_symbol
 _atom_site_label
 _atom_site_symmetry_multiplicity
 _atom_site_fract_x
 _atom_site_fract_y
 _atom_site_fract_z
 _atom_site_occupancy
  Ba  Ba0  1  0.25000000  0.66666833  0.33333467  1.0
  Ba  Ba2  1  0.75000050  0.33333367  0.66666733  1.0
  Mn  Mn4  1  0.50000200  0.99999850  0.99999850  1.0
  Mn  Mn5  1  0.99999600  0.99999850  0.99999950  1.0
  O  O8  1  0.75000050  0.85147550  0.14852450  1.0
  O  O10  1  0.25000100  0.70297100  0.85150400  1.0
  O  O12  1  0.24999950  0.14849550  0.29702850  1.0
  O  O14  1  0.75000100  0.85150600  0.70297300  1.0
  O  O16  1  0.25000050  0.14852600  0.85147500  1.0
  O  O18  1  0.74999950  0.29702750  0.14849450  1.0
