# generated using pymatgen
data_BaNd2FeS5
_symmetry_space_group_name_H-M   'P 1'
_cell_length_a   7.89785400
_cell_length_b   8.76646811
_cell_length_c   7.89785400
_cell_angle_alpha   63.22691788
_cell_angle_beta   89.99999999
_cell_angle_gamma   116.77308211
_symmetry_Int_Tables_number   1
_chemical_formula_structural   BaNd2FeS5
_chemical_formula_sum   'Ba2 Nd4 Fe2 S10'
_cell_volume   421.50236377
_cell_formula_units_Z   2
loop_
 _symmetry_equiv_pos_site_id
 _symmetry_equiv_pos_as_xyz
  1  'x, y, z'
loop_
 _atom_site_type_symbol
 _atom_site_label
 _atom_site_symmetry_multiplicity
 _atom_site_fract_x
 _atom_site_fract_y
 _atom_site_fract_z
 _atom_site_occupancy
  Ba  Ba0  1  0.25000000  0.50000000  0.75000000  1.0
  Ba  Ba1  1  0.75000000  0.50000000  0.25000000  1.0
  Nd  Nd2  1  0.33809200  0.00000000  0.16190800  1.0
  Nd  Nd3  1  0.16190800  0.00000000  0.66190800  1.0
  Nd  Nd4  1  0.83809200  1.00000000  0.33809200  1.0
  Nd  Nd5  1  0.66190800  0.00000000  0.83809200  1.0
  Fe  Fe6  1  0.75000000  0.50000000  0.75000000  1.0
  Fe  Fe7  1  0.25000000  0.50000000  0.25000000  1.0
  S  S8  1  0.48766200  0.27074500  0.71691700  1.0
  S  S9  1  0.21691600  0.72925300  0.98766300  1.0
  S  S10  1  0.51233800  0.72925500  0.28308300  1.0
  S  S11  1  0.01233800  0.72925400  0.48766200  1.0
  S  S12  1  0.71691600  0.72925400  0.78308400  1.0
  S  S13  1  0.98766200  0.27074600  0.51233800  1.0
  S  S14  1  0.28308400  0.27074600  0.21691600  1.0
  S  S15  1  0.78308400  0.27074700  0.01233700  1.0
  S  S16  1  0.50000000  0.00000000  0.50000000  1.0
  S  S17  1  0.00000000  0.00000000  0.00000000  1.0
