# generated using pymatgen
data_BaNi2(PO4)2
_symmetry_space_group_name_H-M   'P 1'
_cell_length_a   4.85254028
_cell_length_b   4.85254000
_cell_length_c   8.40549252
_cell_angle_alpha   73.22267627
_cell_angle_beta   73.22267375
_cell_angle_gamma   59.99999757
_symmetry_Int_Tables_number   1
_chemical_formula_structural   BaNi2(PO4)2
_chemical_formula_sum   'Ba1 Ni2 P2 O8'
_cell_volume   161.60692928
_cell_formula_units_Z   1
loop_
 _symmetry_equiv_pos_site_id
 _symmetry_equiv_pos_as_xyz
  1  'x, y, z'
loop_
 _atom_site_type_symbol
 _atom_site_label
 _atom_site_symmetry_multiplicity
 _atom_site_fract_x
 _atom_site_fract_y
 _atom_site_fract_z
 _atom_site_occupancy
  Ba  Ba0  1  0.00000000  0.00000000  0.00000000  1.0
  Ni  Ni1  1  0.16882800  0.16882800  0.49351600  1.0
  Ni  Ni2  1  0.83117200  0.83117200  0.50648400  1.0
  P  P3  1  0.42761200  0.42761300  0.71716200  1.0
  P  P4  1  0.57238800  0.57238700  0.28283800  1.0
  O  O5  1  0.36329400  0.36329400  0.91011800  1.0
  O  O6  1  0.63670600  0.63670600  0.08988200  1.0
  O  O7  1  0.56001300  0.24016700  0.34618200  1.0
  O  O8  1  0.24016800  0.85363800  0.34618200  1.0
  O  O9  1  0.85363900  0.56001200  0.34618200  1.0
  O  O10  1  0.43998700  0.75983300  0.65381800  1.0
  O  O11  1  0.75983200  0.14636200  0.65381800  1.0
  O  O12  1  0.14636100  0.43998800  0.65381800  1.0
