# generated using pymatgen
data_BaNiO3
_symmetry_space_group_name_H-M   'P 1'
_cell_length_a   4.82506700
_cell_length_b   5.71894600
_cell_length_c   5.71894642
_cell_angle_alpha   60.00000241
_cell_angle_beta   90.00000000
_cell_angle_gamma   90.00000000
_symmetry_Int_Tables_number   1
_chemical_formula_structural   BaNiO3
_chemical_formula_sum   'Ba2 Ni2 O6'
_cell_volume   136.66774048
_cell_formula_units_Z   2
loop_
 _symmetry_equiv_pos_site_id
 _symmetry_equiv_pos_as_xyz
  1  'x, y, z'
loop_
 _atom_site_type_symbol
 _atom_site_label
 _atom_site_symmetry_multiplicity
 _atom_site_fract_x
 _atom_site_fract_y
 _atom_site_fract_z
 _atom_site_occupancy
  Ba  Ba0  1  0.75000000  0.66666667  0.66666667  1.0
  Ba  Ba1  1  0.25000000  0.33333333  0.33333333  1.0
  Ni  Ni2  1  0.50000000  0.00000000  0.00000000  1.0
  Ni  Ni3  1  0.00000000  0.00000000  0.00000000  1.0
  O  O4  1  0.25000000  0.29293300  0.85353300  1.0
  O  O5  1  0.75000000  0.14646600  0.70706800  1.0
  O  O6  1  0.75000000  0.14646600  0.14646700  1.0
  O  O7  1  0.25000000  0.85353400  0.85353300  1.0
  O  O8  1  0.75000000  0.70706700  0.14646700  1.0
  O  O9  1  0.25000000  0.85353400  0.29293200  1.0
