# generated using pymatgen
data_BaPb2C2(O3F)2
_symmetry_space_group_name_H-M   'P 1'
_cell_length_a   5.24875981
_cell_length_b   5.24875981
_cell_length_c   8.57074925
_cell_angle_alpha   72.16951228
_cell_angle_beta   72.16951228
_cell_angle_gamma   60.00000246
_symmetry_Int_Tables_number   1
_chemical_formula_structural   BaPb2C2(O3F)2
_chemical_formula_sum   'Ba1 Pb2 C2 O6 F2'
_cell_volume   191.27740796
_cell_formula_units_Z   1
loop_
 _symmetry_equiv_pos_site_id
 _symmetry_equiv_pos_as_xyz
  1  'x, y, z'
loop_
 _atom_site_type_symbol
 _atom_site_label
 _atom_site_symmetry_multiplicity
 _atom_site_fract_x
 _atom_site_fract_y
 _atom_site_fract_z
 _atom_site_occupancy
  Ba  Ba0  1  0.00000000  0.00000000  0.00000000  1.0
  Pb  Pb1  1  0.21656100  0.21656100  0.35031700  1.0
  Pb  Pb2  1  0.78343900  0.78343900  0.64968300  1.0
  C  C3  1  0.42981400  0.42981400  0.71055800  1.0
  C  C4  1  0.57018600  0.57018600  0.28944200  1.0
  O  O5  1  0.71650800  0.28768000  0.70813200  1.0
  O  O6  1  0.28349200  0.71232000  0.29186800  1.0
  O  O7  1  0.28768000  0.28768000  0.70813200  1.0
  O  O8  1  0.71232000  0.71232000  0.29186800  1.0
  O  O9  1  0.71232000  0.28349200  0.29186800  1.0
  O  O10  1  0.28768000  0.71650800  0.70813200  1.0
  F  F11  1  0.30981700  0.30981700  0.07054900  1.0
  F  F12  1  0.69018300  0.69018300  0.92945100  1.0
