# generated using pymatgen
data_BaSnF4
_symmetry_space_group_name_H-M   'P 1'
_cell_length_a   4.32401343
_cell_length_b   4.32401343
_cell_length_c   7.41043143
_cell_angle_alpha   73.03714291
_cell_angle_beta   73.03714291
_cell_angle_gamma   60.00000876
_symmetry_Int_Tables_number   1
_chemical_formula_structural   BaSnF4
_chemical_formula_sum   'Ba1 Sn1 F4'
_cell_volume   112.97687016
_cell_formula_units_Z   1
loop_
 _symmetry_equiv_pos_site_id
 _symmetry_equiv_pos_as_xyz
  1  'x, y, z'
loop_
 _atom_site_type_symbol
 _atom_site_label
 _atom_site_symmetry_multiplicity
 _atom_site_fract_x
 _atom_site_fract_y
 _atom_site_fract_z
 _atom_site_occupancy
  Ba  Ba0  1  0.00000000  0.00000000  0.00000000  1.0
  Sn  Sn1  1  0.50000000  0.50000000  0.50000000  1.0
  F  F2  1  0.62010100  0.62010100  0.13969700  1.0
  F  F3  1  0.13000500  0.13000500  0.60998500  1.0
  F  F4  1  0.86999500  0.86999500  0.39001500  1.0
  F  F5  1  0.37989900  0.37989900  0.86030300  1.0
