# generated using pymatgen
data_BaSrI4
_symmetry_space_group_name_H-M   'P 1'
_cell_length_a   8.22801400
_cell_length_b   8.22801400
_cell_length_c   10.05875646
_cell_angle_alpha   114.14187958
_cell_angle_beta   114.14187958
_cell_angle_gamma   90.00000000
_symmetry_Int_Tables_number   1
_chemical_formula_structural   BaSrI4
_chemical_formula_sum   'Ba2 Sr2 I8'
_cell_volume   555.50686555
_cell_formula_units_Z   2
loop_
 _symmetry_equiv_pos_site_id
 _symmetry_equiv_pos_as_xyz
  1  'x, y, z'
loop_
 _atom_site_type_symbol
 _atom_site_label
 _atom_site_symmetry_multiplicity
 _atom_site_fract_x
 _atom_site_fract_y
 _atom_site_fract_z
 _atom_site_occupancy
  Ba  Ba0  1  0.50000000  0.50000000  0.00000000  1.0
  Ba  Ba1  1  0.25000000  0.75000000  0.50000000  1.0
  Sr  Sr2  1  0.75000000  0.25000000  0.50000000  1.0
  Sr  Sr3  1  0.00000000  0.00000000  0.00000000  1.0
  I  I4  1  0.64001200  0.13300400  0.76145400  1.0
  I  I5  1  0.86699600  0.87855800  0.23854600  1.0
  I  I6  1  0.37155000  0.35998800  0.23854600  1.0
  I  I7  1  0.62855800  0.62155000  0.73854600  1.0
  I  I8  1  0.12144200  0.62845000  0.76145400  1.0
  I  I9  1  0.37845000  0.89001200  0.26145400  1.0
  I  I10  1  0.88300400  0.37144200  0.26145400  1.0
  I  I11  1  0.10998800  0.11699600  0.73854600  1.0
