# generated using pymatgen
data_BaSrI4
_symmetry_space_group_name_H-M   'P 1'
_cell_length_a   8.51340733
_cell_length_b   9.27111497
_cell_length_c   9.27111497
_cell_angle_alpha   71.91943505
_cell_angle_beta   68.85790966
_cell_angle_gamma   111.14209034
_symmetry_Int_Tables_number   1
_chemical_formula_structural   BaSrI4
_chemical_formula_sum   'Ba2 Sr2 I8'
_cell_volume   548.93950632
_cell_formula_units_Z   2
loop_
 _symmetry_equiv_pos_site_id
 _symmetry_equiv_pos_as_xyz
  1  'x, y, z'
loop_
 _atom_site_type_symbol
 _atom_site_label
 _atom_site_symmetry_multiplicity
 _atom_site_fract_x
 _atom_site_fract_y
 _atom_site_fract_z
 _atom_site_occupancy
  Ba  Ba0  1  0.25000000  0.98140800  0.98140800  1.0
  Ba  Ba1  1  0.75000000  0.01859200  0.01859200  1.0
  Sr  Sr2  1  0.75000000  0.63165600  0.63165600  1.0
  Sr  Sr3  1  0.25000000  0.36834400  0.36834400  1.0
  I  I4  1  0.76019900  0.25541800  0.62847100  1.0
  I  I5  1  0.43643600  0.69476000  0.94478600  1.0
  I  I6  1  0.93643600  0.05521400  0.30524000  1.0
  I  I7  1  0.73980100  0.62847100  0.25541800  1.0
  I  I8  1  0.26019900  0.37152900  0.74458200  1.0
  I  I9  1  0.06356400  0.94478600  0.69476000  1.0
  I  I10  1  0.56356400  0.30524000  0.05521400  1.0
  I  I11  1  0.23980100  0.74458200  0.37152900  1.0
