# generated using pymatgen
data_BaVS3
_symmetry_space_group_name_H-M   'P 1'
_cell_length_a   5.63223300
_cell_length_b   6.75109399
_cell_length_c   6.80201132
_cell_angle_alpha   60.24731517
_cell_angle_beta   90.00000000
_cell_angle_gamma   90.00000000
_symmetry_Int_Tables_number   1
_chemical_formula_structural   BaVS3
_chemical_formula_sum   'Ba2 V2 S6'
_cell_volume   224.54307945
_cell_formula_units_Z   2
loop_
 _symmetry_equiv_pos_site_id
 _symmetry_equiv_pos_as_xyz
  1  'x, y, z'
loop_
 _atom_site_type_symbol
 _atom_site_label
 _atom_site_symmetry_multiplicity
 _atom_site_fract_x
 _atom_site_fract_y
 _atom_site_fract_z
 _atom_site_occupancy
  Ba  Ba0  1  0.75000000  0.33129100  0.33741800  1.0
  Ba  Ba1  1  0.25000000  0.66870900  0.66258200  1.0
  V  V2  1  0.50000000  0.03889500  0.00000000  1.0
  V  V3  1  1.00000000  0.96110500  0.00000000  1.0
  S  S4  1  0.75000000  0.83903200  0.32193600  1.0
  S  S5  1  0.26143300  0.67073500  0.16315900  1.0
  S  S6  1  0.25000000  0.16096800  0.67806400  1.0
  S  S7  1  0.23856700  0.16610600  0.16315900  1.0
  S  S8  1  0.76143300  0.32926500  0.83684100  1.0
  S  S9  1  0.73856700  0.83389400  0.83684100  1.0
