# generated using pymatgen
data_BaYMn2O5
_symmetry_space_group_name_H-M   'P 1'
_cell_length_a   3.97124179
_cell_length_b   3.97128563
_cell_length_c   7.80145700
_cell_angle_alpha   90.00014484
_cell_angle_beta   90.00014484
_cell_angle_gamma   90.00000000
_symmetry_Int_Tables_number   1
_chemical_formula_structural   BaYMn2O5
_chemical_formula_sum   'Ba1 Y1 Mn2 O5'
_cell_volume   123.03627486
_cell_formula_units_Z   1
loop_
 _symmetry_equiv_pos_site_id
 _symmetry_equiv_pos_as_xyz
  1  'x, y, z'
loop_
 _atom_site_type_symbol
 _atom_site_label
 _atom_site_symmetry_multiplicity
 _atom_site_fract_x
 _atom_site_fract_y
 _atom_site_fract_z
 _atom_site_occupancy
  Ba  Ba0  1  0.50000050  0.99999950  0.99998800  1.0
  Mn  Mn4  1  0.00000000  0.50000000  0.26521400  1.0
  Mn  Mn5  1  0.99999800  0.49999900  0.73480100  1.0
  O  O8  1  0.99999950  0.49999950  0.00000700  1.0
  O  O10  1  0.00000350  0.00000550  0.68069600  1.0
  O  O12  1  0.50000450  0.50000250  0.68069600  1.0
  O  O14  1  0.99999750  0.99999750  0.31929900  1.0
  O  O16  1  0.49999650  0.49999650  0.31930000  1.0
  Y  Y2  1  0.50000000  0.00000000  0.49999900  1.0
