# generated using pymatgen
data_BeBr2
_symmetry_space_group_name_H-M   'P 1'
_cell_length_a   5.58694200
_cell_length_b   6.24985600
_cell_length_c   7.17775292
_cell_angle_alpha   115.80839399
_cell_angle_beta   112.90377323
_cell_angle_gamma   90.00000000
_symmetry_Int_Tables_number   1
_chemical_formula_structural   BeBr2
_chemical_formula_sum   'Be2 Br4'
_cell_volume   203.45742359
_cell_formula_units_Z   2
loop_
 _symmetry_equiv_pos_site_id
 _symmetry_equiv_pos_as_xyz
  1  'x, y, z'
loop_
 _atom_site_type_symbol
 _atom_site_label
 _atom_site_symmetry_multiplicity
 _atom_site_fract_x
 _atom_site_fract_y
 _atom_site_fract_z
 _atom_site_occupancy
  Be  Be0  1  0.25000000  1.00000000  1.00000000  1.0
  Be  Be1  1  0.75000000  1.00000000  1.00000000  1.0
  Br  Br2  1  0.89678700  0.70444500  0.79357400  1.0
  Br  Br3  1  0.10321300  0.29555500  0.20642600  1.0
  Br  Br4  1  0.60321300  0.91087100  0.20642600  1.0
  Br  Br5  1  0.39678700  0.08912900  0.79357400  1.0
