# generated using pymatgen
data_Bi2BO5
_symmetry_space_group_name_H-M   'P 1'
_cell_length_a   5.48567400
_cell_length_b   5.58983600
_cell_length_c   7.45330129
_cell_angle_alpha   90.00000000
_cell_angle_beta   111.59250781
_cell_angle_gamma   90.00000000
_symmetry_Int_Tables_number   1
_chemical_formula_structural   Bi2BO5
_chemical_formula_sum   'Bi4 B2 O10'
_cell_volume   212.50970968
_cell_formula_units_Z   2
loop_
 _symmetry_equiv_pos_site_id
 _symmetry_equiv_pos_as_xyz
  1  'x, y, z'
loop_
 _atom_site_type_symbol
 _atom_site_label
 _atom_site_symmetry_multiplicity
 _atom_site_fract_x
 _atom_site_fract_y
 _atom_site_fract_z
 _atom_site_occupancy
  Bi  Bi0  1  0.61254000  0.76546900  0.68406500  1.0
  Bi  Bi1  1  0.07152500  0.26546900  0.68406500  1.0
  Bi  Bi2  1  0.38746000  0.26546900  0.31593500  1.0
  Bi  Bi3  1  0.92847500  0.76546900  0.31593500  1.0
  B  B4  1  0.69520700  0.34045000  1.00000000  1.0
  B  B5  1  0.30479300  0.84045000  0.00000000  1.0
  O  O6  1  0.09653600  0.85605200  0.82517800  1.0
  O  O7  1  0.72864200  0.35605200  0.82517800  1.0
  O  O8  1  0.74235600  0.53499100  0.48238500  1.0
  O  O9  1  0.74002900  0.03499100  0.48238500  1.0
  O  O10  1  0.25997100  0.53499100  0.51761500  1.0
  O  O11  1  0.25764400  0.03499100  0.51761500  1.0
  O  O12  1  0.90346400  0.35605200  0.17482200  1.0
  O  O13  1  0.27135800  0.85605200  0.17482200  1.0
  O  O14  1  0.55783100  0.82126500  1.00000000  1.0
  O  O15  1  0.44216900  0.32126500  1.00000000  1.0
