# generated using pymatgen
data_Bi2O3
_symmetry_space_group_name_H-M   'P 1'
_cell_length_a   6.13155200
_cell_length_b   7.85703800
_cell_length_c   7.85703843
_cell_angle_alpha   60.00000180
_cell_angle_beta   90.00000000
_cell_angle_gamma   90.00000000
_symmetry_Int_Tables_number   1
_chemical_formula_structural   Bi2O3
_chemical_formula_sum   'Bi8 O12'
_cell_volume   327.80742505
_cell_formula_units_Z   4
loop_
 _symmetry_equiv_pos_site_id
 _symmetry_equiv_pos_as_xyz
  1  'x, y, z'
loop_
 _atom_site_type_symbol
 _atom_site_label
 _atom_site_symmetry_multiplicity
 _atom_site_fract_x
 _atom_site_fract_y
 _atom_site_fract_z
 _atom_site_occupancy
  Bi  Bi0  1  0.25083000  0.85454700  0.34387000  1.0
  Bi  Bi1  1  0.25083000  0.34387000  0.80158300  1.0
  Bi  Bi2  1  0.25083000  0.80158300  0.85454700  1.0
  Bi  Bi3  1  0.75083000  0.19841700  0.65613000  1.0
  Bi  Bi4  1  0.75083000  0.14545300  0.19841700  1.0
  Bi  Bi5  1  0.75083000  0.65613000  0.14545300  1.0
  Bi  Bi6  1  0.25451000  0.33333333  0.33333333  1.0
  Bi  Bi7  1  0.75451000  0.66666667  0.66666667  1.0
  O  O8  1  0.55053900  0.92422400  0.49671200  1.0
  O  O9  1  0.55053900  0.49671200  0.57906400  1.0
  O  O10  1  0.55053900  0.57906400  0.92422400  1.0
  O  O11  1  0.05053900  0.42093600  0.50328800  1.0
  O  O12  1  0.05053900  0.07577600  0.42093600  1.0
  O  O13  1  0.05053900  0.50328800  0.07577600  1.0
  O  O14  1  0.37222800  0.11766100  0.74576500  1.0
  O  O15  1  0.37222800  0.74576500  0.13657400  1.0
  O  O16  1  0.37222800  0.13657400  0.11766100  1.0
  O  O17  1  0.87222800  0.86342600  0.25423500  1.0
  O  O18  1  0.87222800  0.88233900  0.86342600  1.0
  O  O19  1  0.87222800  0.25423500  0.88233900  1.0
