# generated using pymatgen
data_Bi2Se3
_symmetry_space_group_name_H-M   'P 1'
_cell_length_a   4.18976613
_cell_length_b   4.18976613
_cell_length_c   10.42166891
_cell_angle_alpha   78.40383581
_cell_angle_beta   78.40383581
_cell_angle_gamma   59.99999797
_symmetry_Int_Tables_number   1
_chemical_formula_structural   Bi2Se3
_chemical_formula_sum   'Bi2 Se3'
_cell_volume   154.10680110
_cell_formula_units_Z   1
loop_
 _symmetry_equiv_pos_site_id
 _symmetry_equiv_pos_as_xyz
  1  'x, y, z'
loop_
 _atom_site_type_symbol
 _atom_site_label
 _atom_site_symmetry_multiplicity
 _atom_site_fract_x
 _atom_site_fract_y
 _atom_site_fract_z
 _atom_site_occupancy
  Bi  Bi0  1  0.60266000  0.60266000  0.19202000  1.0
  Bi  Bi1  1  0.39734000  0.39734000  0.80798000  1.0
  Se  Se2  1  0.00000000  0.00000000  0.00000000  1.0
  Se  Se3  1  0.21785300  0.21785300  0.34644100  1.0
  Se  Se4  1  0.78214700  0.78214700  0.65355900  1.0
