# generated using pymatgen
data_BiPbBrO2
_symmetry_space_group_name_H-M   'P 1'
_cell_length_a   4.00990200
_cell_length_b   4.00990200
_cell_length_c   7.18014796
_cell_angle_alpha   106.21457225
_cell_angle_beta   106.21457225
_cell_angle_gamma   90.00000001
_symmetry_Int_Tables_number   1
_chemical_formula_structural   BiPbBrO2
_chemical_formula_sum   'Bi1 Pb1 Br1 O2'
_cell_volume   106.06848150
_cell_formula_units_Z   1
loop_
 _symmetry_equiv_pos_site_id
 _symmetry_equiv_pos_as_xyz
  1  'x, y, z'
loop_
 _atom_site_type_symbol
 _atom_site_label
 _atom_site_symmetry_multiplicity
 _atom_site_fract_x
 _atom_site_fract_y
 _atom_site_fract_z
 _atom_site_occupancy
  Bi  Bi0  1  0.34043300  0.34043300  0.68086600  1.0
  Pb  Pb1  1  0.65217400  0.65217400  0.30434800  1.0
  Br  Br2  1  0.99405000  0.99405000  0.98810000  1.0
  O  O3  1  0.75667100  0.25667100  0.51334200  1.0
  O  O4  1  0.25667100  0.75667100  0.51334200  1.0
