# generated using pymatgen
data_Ca(BeN)2
_symmetry_space_group_name_H-M   'P 1'
_cell_length_a   5.23375155
_cell_length_b   5.23375155
_cell_length_c   5.23375155
_cell_angle_alpha   82.66979627
_cell_angle_beta   64.13792482
_cell_angle_gamma   115.86207518
_symmetry_Int_Tables_number   1
_chemical_formula_structural   Ca(BeN)2
_chemical_formula_sum   'Ca2 Be4 N4'
_cell_volume   106.76662109
_cell_formula_units_Z   2
loop_
 _symmetry_equiv_pos_site_id
 _symmetry_equiv_pos_as_xyz
  1  'x, y, z'
loop_
 _atom_site_type_symbol
 _atom_site_label
 _atom_site_symmetry_multiplicity
 _atom_site_fract_x
 _atom_site_fract_y
 _atom_site_fract_z
 _atom_site_occupancy
  Ca  Ca0  1  1.00000000  0.25000000  0.75000000  1.0
  Ca  Ca1  1  1.00000000  0.75000000  0.25000000  1.0
  Be  Be2  1  0.75253400  0.12626700  0.37373300  1.0
  Be  Be3  1  0.50000000  0.62626700  0.12626700  1.0
  Be  Be4  1  0.24746600  0.87373300  0.62626700  1.0
  Be  Be5  1  0.50000000  0.37373300  0.87373300  1.0
  N  N6  1  0.50000000  0.16942000  0.66942000  1.0
  N  N7  1  0.83884100  0.66942100  0.83057900  1.0
  N  N8  1  0.16115900  0.33057900  0.16942100  1.0
  N  N9  1  0.50000000  0.83058000  0.33058000  1.0
