# generated using pymatgen
data_Ca(CrS2)4
_symmetry_space_group_name_H-M   'P 1'
_cell_length_a   6.87350889
_cell_length_b   6.87350889
_cell_length_c   7.71331004
_cell_angle_alpha   63.54071814
_cell_angle_beta   63.54071814
_cell_angle_gamma   59.99999142
_symmetry_Int_Tables_number   1
_chemical_formula_structural   Ca(CrS2)4
_chemical_formula_sum   'Ca1 Cr4 S8'
_cell_volume   270.62042967
_cell_formula_units_Z   1
loop_
 _symmetry_equiv_pos_site_id
 _symmetry_equiv_pos_as_xyz
  1  'x, y, z'
loop_
 _atom_site_type_symbol
 _atom_site_label
 _atom_site_symmetry_multiplicity
 _atom_site_fract_x
 _atom_site_fract_y
 _atom_site_fract_z
 _atom_site_occupancy
  Ca  Ca0  1  0.50000000  0.50000000  0.50000000  1.0
  Cr  Cr1  1  0.50000000  1.00000000  0.00000000  1.0
  Cr  Cr2  1  0.00000000  0.50000000  0.00000000  1.0
  Cr  Cr3  1  0.50000000  0.50000000  1.00000000  1.0
  Cr  Cr4  1  0.00000000  0.00000000  0.00000000  1.0
  S  S5  1  0.76836300  0.26228000  0.20099400  1.0
  S  S6  1  0.23163700  0.23163700  0.79900600  1.0
  S  S7  1  0.23163700  0.73772000  0.79900600  1.0
  S  S8  1  0.73772000  0.23163700  0.79900600  1.0
  S  S9  1  0.26739300  0.26739300  0.19782100  1.0
  S  S10  1  0.73260700  0.73260700  0.80217900  1.0
  S  S11  1  0.26228000  0.76836300  0.20099400  1.0
  S  S12  1  0.76836300  0.76836300  0.20099400  1.0
