# generated using pymatgen
data_Ca(LaTe2)2
_symmetry_space_group_name_H-M   'P 1'
_cell_length_a   8.38272551
_cell_length_b   8.38272551
_cell_length_c   8.38272551
_cell_angle_alpha   71.16031021
_cell_angle_beta   70.21209404
_cell_angle_gamma   109.78790596
_symmetry_Int_Tables_number   1
_chemical_formula_structural   Ca(LaTe2)2
_chemical_formula_sum   'Ca2 La4 Te8'
_cell_volume   453.41337206
_cell_formula_units_Z   2
loop_
 _symmetry_equiv_pos_site_id
 _symmetry_equiv_pos_as_xyz
  1  'x, y, z'
loop_
 _atom_site_type_symbol
 _atom_site_label
 _atom_site_symmetry_multiplicity
 _atom_site_fract_x
 _atom_site_fract_y
 _atom_site_fract_z
 _atom_site_occupancy
  Ca  Ca0  1  0.50000000  0.25000000  0.25000000  1.0
  Ca  Ca1  1  0.00000000  0.00000000  0.00000000  1.0
  La  La2  1  0.12306200  0.49806200  0.12500000  1.0
  La  La3  1  0.62306200  0.12500000  0.75193800  1.0
  La  La4  1  0.87693800  0.75193800  0.62500000  1.0
  La  La5  1  0.37693800  0.62500000  0.49806200  1.0
  Te  Te6  1  0.39682000  0.37358100  0.87389100  1.0
  Te  Te7  1  0.25252900  0.87642000  0.22676000  1.0
  Te  Te8  1  0.89682000  0.37610900  0.87641900  1.0
  Te  Te9  1  0.10318000  0.22676000  0.52071100  1.0
  Te  Te10  1  0.60318000  0.72928900  0.02324000  1.0
  Te  Te11  1  0.75252900  0.02324000  0.37358000  1.0
  Te  Te12  1  0.24747100  0.87389100  0.72929000  1.0
  Te  Te13  1  0.74747100  0.52071000  0.37610900  1.0
