# generated using pymatgen
data_Ca2Al2O5
_symmetry_space_group_name_H-M   'P 1'
_cell_length_a   5.28545400
_cell_length_b   5.46463600
_cell_length_c   8.18263960
_cell_angle_alpha   109.50666154
_cell_angle_beta   108.84248452
_cell_angle_gamma   90.00000000
_symmetry_Int_Tables_number   1
_chemical_formula_structural   Ca2Al2O5
_chemical_formula_sum   'Ca4 Al4 O10'
_cell_volume   209.28981745
_cell_formula_units_Z   2
loop_
 _symmetry_equiv_pos_site_id
 _symmetry_equiv_pos_as_xyz
  1  'x, y, z'
loop_
 _atom_site_type_symbol
 _atom_site_label
 _atom_site_symmetry_multiplicity
 _atom_site_fract_x
 _atom_site_fract_y
 _atom_site_fract_z
 _atom_site_occupancy
  Ca  Ca0  1  0.10367900  0.08205400  0.21525600  1.0
  Ca  Ca1  1  0.88842300  0.91794600  0.78474400  1.0
  Ca  Ca2  1  0.60367900  0.63320200  0.21525600  1.0
  Ca  Ca3  1  0.38842300  0.36679800  0.78474400  1.0
  Al  Al4  1  0.00291800  0.50000000  1.00000000  1.0
  Al  Al5  1  0.50291800  0.00000000  1.00000000  1.0
  Al  Al6  1  0.70446100  0.32484200  0.50000000  1.0
  Al  Al7  1  0.20446200  0.67515800  0.50000100  1.0
  O  O8  1  0.24127600  0.74182300  0.97877600  1.0
  O  O9  1  0.26250000  0.25817700  0.02122500  1.0
  O  O10  1  0.74127600  0.73695300  0.97877600  1.0
  O  O11  1  0.76250000  0.26304700  0.02122500  1.0
  O  O12  1  0.36844400  0.38696100  0.50000000  1.0
  O  O13  1  0.86844300  0.61303900  0.49999900  1.0
  O  O14  1  0.66002300  0.08403700  0.28304200  1.0
  O  O15  1  0.37698100  0.91596300  0.71695800  1.0
  O  O16  1  0.87698100  0.30099500  0.71695800  1.0
  O  O17  1  0.16002300  0.69900500  0.28304200  1.0
