# generated using pymatgen
data_Ca2AlZn16
_symmetry_space_group_name_H-M   'P 1'
_cell_length_a   6.88850171
_cell_length_b   6.88850171
_cell_length_c   6.88850128
_cell_angle_alpha   82.93859848
_cell_angle_beta   82.93859848
_cell_angle_gamma   82.93859324
_symmetry_Int_Tables_number   1
_chemical_formula_structural   Ca2AlZn16
_chemical_formula_sum   'Ca2 Al1 Zn16'
_cell_volume   319.99465644
_cell_formula_units_Z   1
loop_
 _symmetry_equiv_pos_site_id
 _symmetry_equiv_pos_as_xyz
  1  'x, y, z'
loop_
 _atom_site_type_symbol
 _atom_site_label
 _atom_site_symmetry_multiplicity
 _atom_site_fract_x
 _atom_site_fract_y
 _atom_site_fract_z
 _atom_site_occupancy
  Ca  Ca0  1  0.33679800  0.33679800  0.33679800  1.0
  Ca  Ca1  1  0.66290500  0.66290500  0.66290500  1.0
  Al  Al2  1  0.90024200  0.90024200  0.90024200  1.0
  Zn  Zn3  1  0.15988800  0.65160700  0.65160700  1.0
  Zn  Zn4  1  0.65160700  0.65160700  0.15988800  1.0
  Zn  Zn5  1  0.65160700  0.15988800  0.65160700  1.0
  Zn  Zn6  1  0.83964000  0.34822500  0.34822500  1.0
  Zn  Zn7  1  0.34822500  0.34822500  0.83964000  1.0
  Zn  Zn8  1  0.34822500  0.83964000  0.34822500  1.0
  Zn  Zn9  1  0.29789200  0.70235400  0.99991700  1.0
  Zn  Zn10  1  0.70235400  0.99991700  0.29789200  1.0
  Zn  Zn11  1  0.99991700  0.29789200  0.70235400  1.0
  Zn  Zn12  1  0.29789200  0.99991700  0.70235400  1.0
  Zn  Zn13  1  0.99991700  0.70235400  0.29789200  1.0
  Zn  Zn14  1  0.70235400  0.29789200  0.99991700  1.0
  Zn  Zn15  1  0.00005600  0.00005600  0.49917800  1.0
  Zn  Zn16  1  0.00005600  0.49917800  0.00005600  1.0
  Zn  Zn17  1  0.49917800  0.00005600  0.00005600  1.0
  Zn  Zn18  1  0.10124600  0.10124600  0.10124600  1.0
