# generated using pymatgen
data_Ca2AlCoO5
_symmetry_space_group_name_H-M   'P 1'
_cell_length_a   5.27262149
_cell_length_b   5.57470020
_cell_length_c   8.29576009
_cell_angle_alpha   109.07309070
_cell_angle_beta   108.17689920
_cell_angle_gamma   91.02314707
_symmetry_Int_Tables_number   1
_chemical_formula_structural   Ca2AlCoO5
_chemical_formula_sum   'Ca4 Al2 Co2 O10'
_cell_volume   216.99609635
_cell_formula_units_Z   2
loop_
 _symmetry_equiv_pos_site_id
 _symmetry_equiv_pos_as_xyz
  1  'x, y, z'
loop_
 _atom_site_type_symbol
 _atom_site_label
 _atom_site_symmetry_multiplicity
 _atom_site_fract_x
 _atom_site_fract_y
 _atom_site_fract_z
 _atom_site_occupancy
  Ca  Ca0  1  0.89726000  0.35589800  0.77931400  1.0
  Ca  Ca1  1  0.62336600  0.07765200  0.22082000  1.0
  Ca  Ca2  1  0.11740000  0.63949800  0.21937700  1.0
  Ca  Ca3  1  0.40035800  0.92041500  0.77966000  1.0
  Al  Al4  1  0.79114100  0.67199600  0.49640000  1.0
  Al  Al5  1  0.29238200  0.32470400  0.50284600  1.0
  Co  Co6  1  0.49798600  0.49856600  0.00042800  1.0
  Co  Co7  1  0.99904200  0.99851800  0.00058600  1.0
  O  O8  1  0.12924000  0.60674700  0.50023000  1.0
  O  O9  1  0.62822000  0.38724800  0.49876700  1.0
  O  O10  1  0.33130600  0.29189500  0.71333600  1.0
  O  O11  1  0.61805800  0.70401200  0.28624900  1.0
  O  O12  1  0.81440200  0.92203700  0.69610700  1.0
  O  O13  1  0.11560200  0.07267900  0.30256100  1.0
  O  O14  1  0.26754900  0.26160400  0.02563900  1.0
  O  O15  1  0.22853500  0.74754600  0.97216600  1.0
  O  O16  1  0.73312700  0.72765800  0.97420300  1.0
  O  O17  1  0.77320700  0.25617200  0.02764200  1.0
