# generated using pymatgen
data_Ca2Bi
_symmetry_space_group_name_H-M   'P 1'
_cell_length_a   4.88415800
_cell_length_b   4.88415800
_cell_length_c   9.16114218
_cell_angle_alpha   105.46022006
_cell_angle_beta   105.46022006
_cell_angle_gamma   90.00000000
_symmetry_Int_Tables_number   1
_chemical_formula_structural   Ca2Bi
_chemical_formula_sum   'Ca4 Bi2'
_cell_volume   202.41501322
_cell_formula_units_Z   2
loop_
 _symmetry_equiv_pos_site_id
 _symmetry_equiv_pos_as_xyz
  1  'x, y, z'
loop_
 _atom_site_type_symbol
 _atom_site_label
 _atom_site_symmetry_multiplicity
 _atom_site_fract_x
 _atom_site_fract_y
 _atom_site_fract_z
 _atom_site_occupancy
  Ca  Ca0  1  0.67331500  0.67331500  0.34663000  1.0
  Ca  Ca1  1  0.00000000  0.50000000  1.00000000  1.0
  Ca  Ca2  1  0.32668500  0.32668500  0.65337000  1.0
  Ca  Ca3  1  0.50000000  0.00000000  0.00000000  1.0
  Bi  Bi4  1  0.13671900  0.13671900  0.27343800  1.0
  Bi  Bi5  1  0.86328100  0.86328100  0.72656200  1.0
