# generated using pymatgen
data_Ca2B5ClO10
_symmetry_space_group_name_H-M   'P 1'
_cell_length_a   6.26707500
_cell_length_b   6.54853927
_cell_length_c   6.54979383
_cell_angle_alpha   80.31218584
_cell_angle_beta   61.72256070
_cell_angle_gamma   62.68600410
_symmetry_Int_Tables_number   1
_chemical_formula_structural   Ca2B5ClO10
_chemical_formula_sum   'Ca2 B5 Cl1 O10'
_cell_volume   209.91828924
_cell_formula_units_Z   1
loop_
 _symmetry_equiv_pos_site_id
 _symmetry_equiv_pos_as_xyz
  1  'x, y, z'
loop_
 _atom_site_type_symbol
 _atom_site_label
 _atom_site_symmetry_multiplicity
 _atom_site_fract_x
 _atom_site_fract_y
 _atom_site_fract_z
 _atom_site_occupancy
  Ca  Ca0  1  0.99014200  0.04814600  0.99954500  1.0
  Ca  Ca1  1  0.67121900  0.45071300  0.52019400  1.0
  B  B2  1  0.34598100  0.12802700  0.51734400  1.0
  B  B3  1  0.69086400  0.91069800  0.66771000  1.0
  B  B4  1  0.10054300  0.96563800  0.44722100  1.0
  B  B5  1  0.49538400  0.98387000  0.11336100  1.0
  B  B6  1  0.12637900  0.57688300  0.56484800  1.0
  Cl  Cl7  1  0.15021600  0.50531300  0.06235100  1.0
  O  O8  1  0.90534100  0.42902100  0.12128900  1.0
  O  O9  1  0.32040800  0.35749100  0.54785900  1.0
  O  O10  1  0.55033200  0.04092300  0.27029100  1.0
  O  O11  1  0.08424400  0.14694200  0.56657100  1.0
  O  O12  1  0.43033100  0.97188600  0.68456600  1.0
  O  O13  1  0.68056300  0.96624100  0.88581600  1.0
  O  O14  1  0.86196000  0.64873900  0.61414500  1.0
  O  O15  1  0.83170000  0.02819000  0.48201600  1.0
  O  O16  1  0.26814100  0.95181400  0.18736900  1.0
  O  O17  1  0.22585400  0.73766600  0.53100500  1.0
