# generated using pymatgen
data_Ca2Fe2O5
_symmetry_space_group_name_H-M   'P 1'
_cell_length_a   5.56487078
_cell_length_b   5.65768150
_cell_length_c   8.39739575
_cell_angle_alpha   109.36716341
_cell_angle_beta   109.02658150
_cell_angle_gamma   90.90798025
_symmetry_Int_Tables_number   1
_chemical_formula_structural   Ca2Fe2O5
_chemical_formula_sum   'Ca4 Fe4 O10'
_cell_volume   233.50972462
_cell_formula_units_Z   2
loop_
 _symmetry_equiv_pos_site_id
 _symmetry_equiv_pos_as_xyz
  1  'x, y, z'
loop_
 _atom_site_type_symbol
 _atom_site_label
 _atom_site_symmetry_multiplicity
 _atom_site_fract_x
 _atom_site_fract_y
 _atom_site_fract_z
 _atom_site_occupancy
  Ca  Ca0  1  0.41908100  0.36546000  0.28707000  1.0
  Ca  Ca1  1  0.58091900  0.63454000  0.71293000  1.0
  Ca  Ca2  1  0.86798900  0.92161000  0.28707000  1.0
  Ca  Ca3  1  0.13201100  0.07839000  0.71293000  1.0
  Fe  Fe4  1  0.50000000  0.00000000  0.50000000  1.0
  Fe  Fe5  1  0.00000000  0.50000000  0.50000000  1.0
  Fe  Fe6  1  0.17503300  0.69085100  1.00000000  1.0
  Fe  Fe7  1  0.82496700  0.30914900  0.00000000  1.0
  O  O8  1  0.23174900  0.73174900  0.46349800  1.0
  O  O9  1  0.25989500  0.25989500  0.51979000  1.0
  O  O10  1  0.74010500  0.74010500  0.48021000  1.0
  O  O11  1  0.76825100  0.26825100  0.53650200  1.0
  O  O12  1  0.38906600  0.92649700  0.21925300  1.0
  O  O13  1  0.61093400  0.07350300  0.78074700  1.0
  O  O14  1  0.83018700  0.29275600  0.21925300  1.0
  O  O15  1  0.16981300  0.70724400  0.78074700  1.0
  O  O16  1  0.18147200  0.34259400  0.00000000  1.0
  O  O17  1  0.81852800  0.65740600  0.00000000  1.0
