# generated using pymatgen
data_Ca2Ni10H
_symmetry_space_group_name_H-M   'P 1'
_cell_length_a   4.95301637
_cell_length_b   4.96071007
_cell_length_c   7.83333752
_cell_angle_alpha   89.64271790
_cell_angle_beta   89.63834675
_cell_angle_gamma   60.54905745
_symmetry_Int_Tables_number   1
_chemical_formula_structural   Ca2Ni10H
_chemical_formula_sum   'Ca2 Ni10 H1'
_cell_volume   167.59302303
_cell_formula_units_Z   1
loop_
 _symmetry_equiv_pos_site_id
 _symmetry_equiv_pos_as_xyz
  1  'x, y, z'
loop_
 _atom_site_type_symbol
 _atom_site_label
 _atom_site_symmetry_multiplicity
 _atom_site_fract_x
 _atom_site_fract_y
 _atom_site_fract_z
 _atom_site_occupancy
  Ca  Ca0  1  0.00688400  0.00692200  0.01195400  1.0
  Ca  Ca1  1  0.99783800  0.99788400  0.49804000  1.0
  Ni  Ni2  1  0.66169800  0.66179300  0.99924300  1.0
  Ni  Ni3  1  0.33985100  0.33983500  0.99853200  1.0
  Ni  Ni4  1  0.49867300  0.49869200  0.74363100  1.0
  Ni  Ni5  1  0.48698300  0.00659700  0.74255800  1.0
  Ni  Ni6  1  0.00661400  0.48698700  0.74254700  1.0
  Ni  Ni7  1  0.66472800  0.66477200  0.49512300  1.0
  Ni  Ni8  1  0.33141900  0.33136100  0.49561500  1.0
  Ni  Ni9  1  0.50075700  0.50079900  0.24917500  1.0
  Ni  Ni10  1  0.50188200  0.00105200  0.24748100  1.0
  Ni  Ni11  1  0.00102900  0.50188600  0.24747600  1.0
  H  H12  1  0.79744400  0.79752000  0.85142500  1.0
