# generated using pymatgen
data_Ca2SnWO6
_symmetry_space_group_name_H-M   'P 1'
_cell_length_a   5.64835006
_cell_length_b   5.66667643
_cell_length_c   5.70524807
_cell_angle_alpha   119.47628122
_cell_angle_beta   90.15425641
_cell_angle_gamma   119.50720369
_symmetry_Int_Tables_number   1
_chemical_formula_structural   Ca2SnWO6
_chemical_formula_sum   'Ca2 Sn1 W1 O6'
_cell_volume   130.91657263
_cell_formula_units_Z   1
loop_
 _symmetry_equiv_pos_site_id
 _symmetry_equiv_pos_as_xyz
  1  'x, y, z'
loop_
 _atom_site_type_symbol
 _atom_site_label
 _atom_site_symmetry_multiplicity
 _atom_site_fract_x
 _atom_site_fract_y
 _atom_site_fract_z
 _atom_site_occupancy
  Ca  Ca0  1  0.77607500  0.54251300  0.29754200  1.0
  Ca  Ca1  1  0.27756100  0.54457000  0.80358100  1.0
  Sn  Sn2  1  0.50621800  0.00481000  0.48899600  1.0
  W  W3  1  0.00514300  0.00267600  0.98593600  1.0
  O  O4  1  0.65123300  0.49231500  0.70762600  1.0
  O  O5  1  0.35787200  0.50938000  0.21154400  1.0
  O  O6  1  0.15649200  0.88467900  0.20854400  1.0
  O  O7  1  0.74636800  0.08386800  0.21800200  1.0
  O  O8  1  0.22894600  0.88278200  0.71048100  1.0
  O  O9  1  0.85235000  0.08497800  0.72207400  1.0
