# generated using pymatgen
data_Ca2Ti3O8
_symmetry_space_group_name_H-M   'P 1'
_cell_length_a   5.09565132
_cell_length_b   6.11843400
_cell_length_c   6.39458499
_cell_angle_alpha   61.41855938
_cell_angle_beta   72.04161712
_cell_angle_gamma   90.00000000
_symmetry_Int_Tables_number   1
_chemical_formula_structural   Ca2Ti3O8
_chemical_formula_sum   'Ca2 Ti3 O8'
_cell_volume   163.92507714
_cell_formula_units_Z   1
loop_
 _symmetry_equiv_pos_site_id
 _symmetry_equiv_pos_as_xyz
  1  'x, y, z'
loop_
 _atom_site_type_symbol
 _atom_site_label
 _atom_site_symmetry_multiplicity
 _atom_site_fract_x
 _atom_site_fract_y
 _atom_site_fract_z
 _atom_site_occupancy
  Ca  Ca0  1  0.33701000  0.27457200  0.45085600  1.0
  Ca  Ca1  1  0.66299000  0.72542800  0.54914400  1.0
  Ti  Ti2  1  0.50000000  0.00000000  0.00000000  1.0
  Ti  Ti3  1  0.00000000  0.73327900  0.00000000  1.0
  Ti  Ti4  1  1.00000000  0.26672100  0.00000000  1.0
  O  O5  1  0.95299500  0.60377400  0.79245200  1.0
  O  O6  1  0.04700500  0.39622600  0.20754800  1.0
  O  O7  1  0.90508100  0.09977000  0.80046000  1.0
  O  O8  1  0.09491900  0.90023000  0.19954000  1.0
  O  O9  1  0.60672800  0.11631900  0.20790200  1.0
  O  O10  1  0.60672800  0.67577900  0.20790200  1.0
  O  O11  1  0.39327200  0.32422100  0.79209800  1.0
  O  O12  1  0.39327200  0.88368100  0.79209800  1.0
