# generated using pymatgen
data_Ca2YbRuO6
_symmetry_space_group_name_H-M   'P 1'
_cell_length_a   5.54615900
_cell_length_b   5.83237600
_cell_length_c   7.97799360
_cell_angle_alpha   90.00000000
_cell_angle_beta   89.94561279
_cell_angle_gamma   90.00000000
_symmetry_Int_Tables_number   1
_chemical_formula_structural   Ca2YbRuO6
_chemical_formula_sum   'Ca4 Yb2 Ru2 O12'
_cell_volume   258.06631351
_cell_formula_units_Z   2
loop_
 _symmetry_equiv_pos_site_id
 _symmetry_equiv_pos_as_xyz
  1  'x, y, z'
loop_
 _atom_site_type_symbol
 _atom_site_label
 _atom_site_symmetry_multiplicity
 _atom_site_fract_x
 _atom_site_fract_y
 _atom_site_fract_z
 _atom_site_occupancy
  Ca  Ca0  1  0.98327100  0.43937600  0.25506900  1.0
  Ca  Ca1  1  0.01672900  0.56062400  0.74493100  1.0
  Ca  Ca2  1  0.51672900  0.93937600  0.24493100  1.0
  Ca  Ca3  1  0.48327100  0.06062400  0.75506900  1.0
  Yb  Yb4  1  0.00000000  0.00000000  0.50000000  1.0
  Yb  Yb5  1  0.50000000  0.50000000  0.00000000  1.0
  Ru  Ru6  1  0.00000000  0.00000000  0.00000000  1.0
  Ru  Ru7  1  0.50000000  0.50000000  0.50000000  1.0
  O  O8  1  0.11223500  0.04982300  0.22838900  1.0
  O  O9  1  0.88776500  0.95017700  0.77161100  1.0
  O  O10  1  0.38776500  0.54982300  0.27161100  1.0
  O  O11  1  0.61223500  0.45017700  0.72838900  1.0
  O  O12  1  0.82917200  0.72090200  0.06840300  1.0
  O  O13  1  0.17082800  0.27909800  0.93159700  1.0
  O  O14  1  0.67082800  0.22090200  0.43159700  1.0
  O  O15  1  0.32917200  0.77909800  0.56840300  1.0
  O  O16  1  0.71406000  0.17957500  0.05196200  1.0
  O  O17  1  0.28594000  0.82042500  0.94803800  1.0
  O  O18  1  0.78594000  0.67957500  0.44803800  1.0
  O  O19  1  0.21406000  0.32042500  0.55196200  1.0
