# generated using pymatgen
data_Ca3Mn2(WO6)2
_symmetry_space_group_name_H-M   'P 1'
_cell_length_a   5.51906204
_cell_length_b   5.64416475
_cell_length_c   7.60970804
_cell_angle_alpha   89.45894816
_cell_angle_beta   89.81194726
_cell_angle_gamma   85.69589367
_symmetry_Int_Tables_number   1
_chemical_formula_structural   Ca3Mn2(WO6)2
_chemical_formula_sum   'Ca3 Mn2 W2 O12'
_cell_volume   236.36632136
_cell_formula_units_Z   1
loop_
 _symmetry_equiv_pos_site_id
 _symmetry_equiv_pos_as_xyz
  1  'x, y, z'
loop_
 _atom_site_type_symbol
 _atom_site_label
 _atom_site_symmetry_multiplicity
 _atom_site_fract_x
 _atom_site_fract_y
 _atom_site_fract_z
 _atom_site_occupancy
  Ca  Ca0  1  1.00000000  0.05100900  0.74533800  1.0
  Ca  Ca1  1  0.99837700  0.95283200  0.24919300  1.0
  Ca  Ca2  1  0.51980600  0.44783600  0.24971700  1.0
  Mn  Mn3  1  0.00666000  0.50120100  0.49924700  1.0
  Mn  Mn4  1  0.49748700  0.98858800  0.99959900  1.0
  W  W5  1  0.00470400  0.50201500  0.99008000  1.0
  W  W6  1  0.49894200  0.98988900  0.50818100  1.0
  O  O7  1  0.28383100  0.27590500  0.53885800  1.0
  O  O8  1  0.16924500  0.78929300  0.96484600  1.0
  O  O9  1  0.71412200  0.71167000  0.44562100  1.0
  O  O10  1  0.81033600  0.23607700  0.04963500  1.0
  O  O11  1  0.77143400  0.18604200  0.45800400  1.0
  O  O12  1  0.71222300  0.71246500  0.05669800  1.0
  O  O13  1  0.21582200  0.81596600  0.53165600  1.0
  O  O14  1  0.28361900  0.28183800  0.96160100  1.0
  O  O15  1  0.92696200  0.48387300  0.74883800  1.0
  O  O16  1  0.58658300  0.97229700  0.75058900  1.0
  O  O17  1  0.41942400  0.02381000  0.24847800  1.0
  O  O18  1  0.09454800  0.52174500  0.25051800  1.0
