# generated using pymatgen
data_Ca3SiO
_symmetry_space_group_name_H-M   'P 1'
_cell_length_a   6.67525600
_cell_length_b   6.68222677
_cell_length_c   6.68222677
_cell_angle_alpha   60.13543222
_cell_angle_beta   60.03450214
_cell_angle_gamma   60.03450214
_symmetry_Int_Tables_number   1
_chemical_formula_structural   Ca3SiO
_chemical_formula_sum   'Ca6 Si2 O2'
_cell_volume   211.08853299
_cell_formula_units_Z   2
loop_
 _symmetry_equiv_pos_site_id
 _symmetry_equiv_pos_as_xyz
  1  'x, y, z'
loop_
 _atom_site_type_symbol
 _atom_site_label
 _atom_site_symmetry_multiplicity
 _atom_site_fract_x
 _atom_site_fract_y
 _atom_site_fract_z
 _atom_site_occupancy
  Ca  Ca0  1  0.76688100  0.73311900  0.23311900  1.0
  Ca  Ca2  1  0.73311900  0.26688100  0.76688100  1.0
  Ca  Ca3  1  0.75000000  0.78344800  0.71655200  1.0
  Ca  Ca5  1  0.25000000  0.21655200  0.28344800  1.0
  Ca  Ca7  1  0.26688100  0.73311900  0.23311900  1.0
  Ca  Ca8  1  0.23311900  0.26688100  0.76688100  1.0
  O  O16  1  0.50000000  1.00000000  0.00000000  1.0
  O  O17  1  1.00000000  0.50000000  0.50000000  1.0
  Si  Si12  1  0.25000000  0.74957600  0.75042400  1.0
  Si  Si14  1  0.75000000  0.25042400  0.24957600  1.0
