# generated using pymatgen
data_Ca3UO6
_symmetry_space_group_name_H-M   'P 1'
_cell_length_a   5.76377400
_cell_length_b   5.99427200
_cell_length_c   8.39936866
_cell_angle_alpha   90.00000000
_cell_angle_beta   90.68977328
_cell_angle_gamma   90.00000000
_symmetry_Int_Tables_number   1
_chemical_formula_structural   Ca3UO6
_chemical_formula_sum   'Ca6 U2 O12'
_cell_volume   290.17404284
_cell_formula_units_Z   2
loop_
 _symmetry_equiv_pos_site_id
 _symmetry_equiv_pos_as_xyz
  1  'x, y, z'
loop_
 _atom_site_type_symbol
 _atom_site_label
 _atom_site_symmetry_multiplicity
 _atom_site_fract_x
 _atom_site_fract_y
 _atom_site_fract_z
 _atom_site_occupancy
  Ca  Ca0  1  0.51596500  0.44840300  0.24011900  1.0
  Ca  Ca1  1  0.98403500  0.94840300  0.25988100  1.0
  Ca  Ca2  1  0.00000000  0.50000000  0.50000000  1.0
  Ca  Ca3  1  0.50000000  1.00000000  0.00000000  1.0
  Ca  Ca4  1  0.01596500  0.05159700  0.74011900  1.0
  Ca  Ca5  1  0.48403500  0.55159700  0.75988100  1.0
  U  U6  1  0.00000000  0.50000000  0.00000000  1.0
  U  U7  1  0.50000000  0.00000000  0.50000000  1.0
  O  O8  1  0.87066900  0.42879300  0.76901100  1.0
  O  O9  1  0.62933100  0.92879300  0.73098900  1.0
  O  O10  1  0.12933100  0.57120700  0.23098900  1.0
  O  O11  1  0.37066900  0.07120700  0.26901100  1.0
  O  O12  1  0.79575400  0.17872500  0.44521500  1.0
  O  O13  1  0.70424600  0.67872500  0.05478500  1.0
  O  O14  1  0.20424600  0.82127500  0.55478500  1.0
  O  O15  1  0.29575400  0.32127500  0.94521500  1.0
  O  O16  1  0.17710200  0.78461300  0.91663200  1.0
  O  O17  1  0.32289800  0.28461300  0.58336800  1.0
  O  O18  1  0.82289800  0.21538700  0.08336800  1.0
  O  O19  1  0.67710200  0.71538700  0.41663200  1.0
