# generated using pymatgen
data_Ca4GdB3O10
_symmetry_space_group_name_H-M   'P 1'
_cell_length_a   3.58311286
_cell_length_b   8.15072800
_cell_length_c   9.05739407
_cell_angle_alpha   63.25959807
_cell_angle_beta   84.95874547
_cell_angle_gamma   78.73801063
_symmetry_Int_Tables_number   1
_chemical_formula_structural   Ca4GdB3O10
_chemical_formula_sum   'Ca4 Gd1 B3 O10'
_cell_volume   231.68284888
_cell_formula_units_Z   1
loop_
 _symmetry_equiv_pos_site_id
 _symmetry_equiv_pos_as_xyz
  1  'x, y, z'
loop_
 _atom_site_type_symbol
 _atom_site_label
 _atom_site_symmetry_multiplicity
 _atom_site_fract_x
 _atom_site_fract_y
 _atom_site_fract_z
 _atom_site_occupancy
  Ca  Ca0  1  0.65751100  0.91824300  0.63625700  1.0
  Ca  Ca1  1  0.65751100  0.55450000  0.36374300  1.0
  Ca  Ca2  1  0.32740300  0.24558800  0.22569900  1.0
  Ca  Ca3  1  0.32740300  0.47128700  0.77430100  1.0
  Gd  Gd4  1  0.00210300  0.99887100  1.00000000  1.0
  B  B5  1  0.08033100  0.24593400  0.61018200  1.0
  B  B6  1  0.08033100  0.85611600  0.38981800  1.0
  B  B7  1  0.70119000  0.62472100  0.00000000  1.0
  O  O8  1  0.60698400  0.79891900  0.00000000  1.0
  O  O9  1  0.27158600  0.30248600  0.46063100  1.0
  O  O10  1  0.42176300  0.17187000  0.00000000  1.0
  O  O11  1  0.74799000  0.61350000  0.85107000  1.0
  O  O12  1  0.74799000  0.46457000  0.14893000  1.0
  O  O13  1  0.88309100  0.03575400  0.34482100  1.0
  O  O14  1  0.88309100  0.38057500  0.65517900  1.0
  O  O15  1  0.08166800  0.77041400  0.28622300  1.0
  O  O16  1  0.08166800  0.05663700  0.71377700  1.0
  O  O17  1  0.27158600  0.76311700  0.53936900  1.0
