# generated using pymatgen
data_Ca5Sn3H
_symmetry_space_group_name_H-M   'P 1'
_cell_length_a   8.19046200
_cell_length_b   9.45528056
_cell_length_c   8.19046200
_cell_angle_alpha   115.66545706
_cell_angle_beta   90.00000000
_cell_angle_gamma   115.66545706
_symmetry_Int_Tables_number   1
_chemical_formula_structural   Ca5Sn3H
_chemical_formula_sum   'Ca10 Sn6 H2'
_cell_volume   501.38252757
_cell_formula_units_Z   2
loop_
 _symmetry_equiv_pos_site_id
 _symmetry_equiv_pos_as_xyz
  1  'x, y, z'
loop_
 _atom_site_type_symbol
 _atom_site_label
 _atom_site_symmetry_multiplicity
 _atom_site_fract_x
 _atom_site_fract_y
 _atom_site_fract_z
 _atom_site_occupancy
  Ca  Ca0  1  0.50000000  0.00000000  0.50000000  1.0
  Ca  Ca1  1  0.00000000  0.00000000  0.00000000  1.0
  Ca  Ca2  1  0.48985800  0.30418000  0.31432200  1.0
  Ca  Ca3  1  0.81432200  0.30418000  0.98985800  1.0
  Ca  Ca4  1  0.98985800  0.30418000  0.48985800  1.0
  Ca  Ca5  1  0.31432200  0.30418000  0.81432200  1.0
  Ca  Ca6  1  0.51014200  0.69582000  0.68567800  1.0
  Ca  Ca7  1  0.18567800  0.69582000  0.01014200  1.0
  Ca  Ca8  1  0.01014200  0.69582000  0.51014200  1.0
  Ca  Ca9  1  0.68567800  0.69582000  0.18567800  1.0
  Sn  Sn10  1  0.75000000  0.50000000  0.75000000  1.0
  Sn  Sn11  1  0.25000000  0.50000000  0.25000000  1.0
  Sn  Sn12  1  0.12727100  0.00000100  0.37273000  1.0
  Sn  Sn13  1  0.87272900  0.99999900  0.62727000  1.0
  Sn  Sn14  1  0.62727100  0.00000000  0.12727100  1.0
  Sn  Sn15  1  0.37272900  0.00000000  0.87272900  1.0
  H  H16  1  0.75000000  0.50000000  0.25000000  1.0
  H  H17  1  0.25000000  0.50000000  0.75000000  1.0
