# generated using pymatgen
data_CaAgP
_symmetry_space_group_name_H-M   'P 1'
_cell_length_a   4.20302000
_cell_length_b   7.07680400
_cell_length_c   7.07680483
_cell_angle_alpha   119.99999612
_cell_angle_beta   90.00000000
_cell_angle_gamma   90.00000000
_symmetry_Int_Tables_number   1
_chemical_formula_structural   CaAgP
_chemical_formula_sum   'Ca3 Ag3 P3'
_cell_volume   182.29153048
_cell_formula_units_Z   3
loop_
 _symmetry_equiv_pos_site_id
 _symmetry_equiv_pos_as_xyz
  1  'x, y, z'
loop_
 _atom_site_type_symbol
 _atom_site_label
 _atom_site_symmetry_multiplicity
 _atom_site_fract_x
 _atom_site_fract_y
 _atom_site_fract_z
 _atom_site_occupancy
  Ca  Ca0  1  0.50000000  0.41092000  0.41092000  1.0
  Ca  Ca1  1  0.50000000  0.58908000  1.00000000  1.0
  Ca  Ca2  1  0.50000000  0.00000000  0.58908000  1.0
  Ag  Ag3  1  0.00000000  0.74709100  0.74709100  1.0
  Ag  Ag4  1  0.00000000  0.25290900  1.00000000  1.0
  Ag  Ag5  1  0.00000000  1.00000000  0.25290900  1.0
  P  P6  1  0.50000000  0.00000000  0.00000000  1.0
  P  P7  1  1.00000000  0.66666667  0.33333333  1.0
  P  P8  1  0.00000000  0.33333333  0.66666667  1.0
