# generated using pymatgen
data_CaAl3Au
_symmetry_space_group_name_H-M   'P 1'
_cell_length_a   4.15496900
_cell_length_b   4.15496900
_cell_length_c   6.59687650
_cell_angle_alpha   108.35594457
_cell_angle_beta   108.35595372
_cell_angle_gamma   90.00000000
_symmetry_Int_Tables_number   1
_chemical_formula_structural   CaAl3Au
_chemical_formula_sum   'Ca1 Al3 Au1'
_cell_volume   101.96866649
_cell_formula_units_Z   1
loop_
 _symmetry_equiv_pos_site_id
 _symmetry_equiv_pos_as_xyz
  1  'x, y, z'
loop_
 _atom_site_type_symbol
 _atom_site_label
 _atom_site_symmetry_multiplicity
 _atom_site_fract_x
 _atom_site_fract_y
 _atom_site_fract_z
 _atom_site_occupancy
  Ca  Ca0  1  0.99939500  0.99939600  0.99879100  1.0
  Al  Al1  1  0.74843500  0.24843400  0.49686900  1.0
  Al  Al2  1  0.24843500  0.74843400  0.49686900  1.0
  Al  Al3  1  0.39375700  0.39375700  0.78751400  1.0
  Au  Au4  1  0.60997800  0.60997800  0.21995600  1.0
