# generated using pymatgen
data_CaAu2
_symmetry_space_group_name_H-M   'P 1'
_cell_length_a   4.68792600
_cell_length_b   5.95597014
_cell_length_c   5.95597014
_cell_angle_alpha   73.62341290
_cell_angle_beta   66.82452276
_cell_angle_gamma   66.82452276
_symmetry_Int_Tables_number   1
_chemical_formula_structural   CaAu2
_chemical_formula_sum   'Ca2 Au4'
_cell_volume   138.94360186
_cell_formula_units_Z   2
loop_
 _symmetry_equiv_pos_site_id
 _symmetry_equiv_pos_as_xyz
  1  'x, y, z'
loop_
 _atom_site_type_symbol
 _atom_site_label
 _atom_site_symmetry_multiplicity
 _atom_site_fract_x
 _atom_site_fract_y
 _atom_site_fract_z
 _atom_site_occupancy
  Ca  Ca0  1  0.46063700  0.78936300  0.28936300  1.0
  Ca  Ca1  1  0.53936300  0.21063700  0.71063700  1.0
  Au  Au2  1  0.83810500  0.62340300  0.70038700  1.0
  Au  Au3  1  0.16189500  0.37659700  0.29961300  1.0
  Au  Au4  1  0.83810500  0.20038700  0.12340300  1.0
  Au  Au5  1  0.16189500  0.79961300  0.87659700  1.0
