# generated using pymatgen
data_CaCdGe
_symmetry_space_group_name_H-M   'P 1'
_cell_length_a   4.51104800
_cell_length_b   7.38418400
_cell_length_c   7.38418319
_cell_angle_alpha   120.00000361
_cell_angle_beta   90.00000000
_cell_angle_gamma   90.00000000
_symmetry_Int_Tables_number   1
_chemical_formula_structural   CaCdGe
_chemical_formula_sum   'Ca3 Cd3 Ge3'
_cell_volume   213.01639774
_cell_formula_units_Z   3
loop_
 _symmetry_equiv_pos_site_id
 _symmetry_equiv_pos_as_xyz
  1  'x, y, z'
loop_
 _atom_site_type_symbol
 _atom_site_label
 _atom_site_symmetry_multiplicity
 _atom_site_fract_x
 _atom_site_fract_y
 _atom_site_fract_z
 _atom_site_occupancy
  Ca  Ca0  1  0.50000000  0.41859400  0.41859400  1.0
  Ca  Ca1  1  0.50000000  0.58140600  1.00000000  1.0
  Ca  Ca2  1  0.50000000  0.00000000  0.58140600  1.0
  Cd  Cd3  1  1.00000000  0.00000000  0.25470400  1.0
  Cd  Cd4  1  1.00000000  0.74529600  0.74529600  1.0
  Cd  Cd5  1  0.00000000  0.25470400  1.00000000  1.0
  Ge  Ge6  1  1.00000000  0.66666667  0.33333333  1.0
  Ge  Ge7  1  1.00000000  0.33333333  0.66666667  1.0
  Ge  Ge8  1  0.50000000  0.00000000  0.00000000  1.0
