# generated using pymatgen
data_CaCO3
_symmetry_space_group_name_H-M   'P 1'
_cell_length_a   5.01007600
_cell_length_b   5.04083719
_cell_length_c   8.74457788
_cell_angle_alpha   90.64546830
_cell_angle_beta   90.00000000
_cell_angle_gamma   119.79833881
_symmetry_Int_Tables_number   1
_chemical_formula_structural   CaCO3
_chemical_formula_sum   'Ca3 C3 O9'
_cell_volume   191.62792813
_cell_formula_units_Z   3
loop_
 _symmetry_equiv_pos_site_id
 _symmetry_equiv_pos_as_xyz
  1  'x, y, z'
loop_
 _atom_site_type_symbol
 _atom_site_label
 _atom_site_symmetry_multiplicity
 _atom_site_fract_x
 _atom_site_fract_y
 _atom_site_fract_z
 _atom_site_occupancy
  Ca  Ca0  1  0.65320100  0.33010400  0.33448700  1.0
  Ca  Ca1  1  0.98320300  0.00000000  1.00000000  1.0
  Ca  Ca2  1  0.32309700  0.66989600  0.66551300  1.0
  C  C3  1  0.31063800  0.66001700  0.16916400  1.0
  C  C4  1  0.65062100  0.33998300  0.83083600  1.0
  C  C5  1  0.99130200  0.00000000  0.50000000  1.0
  O  O6  1  0.39085800  0.33954000  0.83405100  1.0
  O  O7  1  0.90780300  0.59795400  0.82633100  1.0
  O  O8  1  0.65229400  0.08309200  0.83254200  1.0
  O  O9  1  0.56920200  0.91690800  0.16745800  1.0
  O  O10  1  0.99057600  0.25731700  0.49990200  1.0
  O  O11  1  0.73325900  0.74268300  0.50009800  1.0
  O  O12  1  0.30984900  0.40204600  0.17366900  1.0
  O  O13  1  0.05131800  0.66046000  0.16594900  1.0
  O  O14  1  0.25078000  0.00000000  0.50000000  1.0
