# generated using pymatgen
data_CaCuN
_symmetry_space_group_name_H-M   'P 1'
_cell_length_a   3.83720951
_cell_length_b   6.75468917
_cell_length_c   8.91002699
_cell_angle_alpha   110.05152812
_cell_angle_beta   102.43492789
_cell_angle_gamma   89.99999430
_symmetry_Int_Tables_number   1
_chemical_formula_structural   CaCuN
_chemical_formula_sum   'Ca4 Cu4 N4'
_cell_volume   211.16543949
_cell_formula_units_Z   4
loop_
 _symmetry_equiv_pos_site_id
 _symmetry_equiv_pos_as_xyz
  1  'x, y, z'
loop_
 _atom_site_type_symbol
 _atom_site_label
 _atom_site_symmetry_multiplicity
 _atom_site_fract_x
 _atom_site_fract_y
 _atom_site_fract_z
 _atom_site_occupancy
  Ca  Ca0  1  0.25708500  0.81343700  0.51416900  1.0
  Ca  Ca1  1  0.74291600  0.18656300  0.48583200  1.0
  Ca  Ca2  1  0.55370000  0.83720000  0.10740100  1.0
  Ca  Ca3  1  0.44630000  0.16280000  0.89259900  1.0
  Cu  Cu4  1  0.36449200  0.48895500  0.72898500  1.0
  Cu  Cu5  1  0.63550800  0.51104500  0.27101500  1.0
  Cu  Cu6  1  0.09405900  0.22474600  0.18811700  1.0
  Cu  Cu7  1  0.90594100  0.77525400  0.81188300  1.0
  N  N8  1  0.40259100  0.78671800  0.80518200  1.0
  N  N9  1  0.59740900  0.21328200  0.19481800  1.0
  N  N10  1  0.67942200  0.80138500  0.35884400  1.0
  N  N11  1  0.32057800  0.19861600  0.64115600  1.0
