# generated using pymatgen
data_CaErAl4
_symmetry_space_group_name_H-M   'P 1'
_cell_length_a   5.58968900
_cell_length_b   5.58968900
_cell_length_c   5.58968900
_cell_angle_alpha   60.00000000
_cell_angle_beta   60.00000000
_cell_angle_gamma   60.00000000
_symmetry_Int_Tables_number   1
_chemical_formula_structural   CaErAl4
_chemical_formula_sum   'Ca1 Er1 Al4'
_cell_volume   123.49459148
_cell_formula_units_Z   1
loop_
 _symmetry_equiv_pos_site_id
 _symmetry_equiv_pos_as_xyz
  1  'x, y, z'
loop_
 _atom_site_type_symbol
 _atom_site_label
 _atom_site_symmetry_multiplicity
 _atom_site_fract_x
 _atom_site_fract_y
 _atom_site_fract_z
 _atom_site_occupancy
  Ca  Ca0  1  0.75000000  0.75000000  0.75000000  1.0
  Er  Er1  1  0.00000000  0.00000000  0.00000000  1.0
  Al  Al2  1  0.37483600  0.87549400  0.37483500  1.0
  Al  Al3  1  0.37483600  0.37483500  0.37483500  1.0
  Al  Al4  1  0.37483600  0.37483500  0.87549400  1.0
  Al  Al5  1  0.87549500  0.37483500  0.37483500  1.0
