# generated using pymatgen
data_CaFeReO6
_symmetry_space_group_name_H-M   'P 1'
_cell_length_a   5.33793300
_cell_length_b   5.51484100
_cell_length_c   7.64696560
_cell_angle_alpha   90.00000000
_cell_angle_beta   89.93715193
_cell_angle_gamma   90.00000000
_symmetry_Int_Tables_number   1
_chemical_formula_structural   CaFeReO6
_chemical_formula_sum   'Ca2 Fe2 Re2 O12'
_cell_volume   225.11010443
_cell_formula_units_Z   2
loop_
 _symmetry_equiv_pos_site_id
 _symmetry_equiv_pos_as_xyz
  1  'x, y, z'
loop_
 _atom_site_type_symbol
 _atom_site_label
 _atom_site_symmetry_multiplicity
 _atom_site_fract_x
 _atom_site_fract_y
 _atom_site_fract_z
 _atom_site_occupancy
  Ca  Ca0  1  0.98493600  0.31141600  0.24725400  1.0
  Ca  Ca1  1  0.48493600  0.68858400  0.74725400  1.0
  Fe  Fe2  1  0.98840800  0.75624300  0.99871600  1.0
  Fe  Fe3  1  0.48840800  0.24375700  0.49871600  1.0
  Re  Re4  1  0.49629400  0.23726700  0.99782000  1.0
  Re  Re5  1  0.99629400  0.76273300  0.49782000  1.0
  O  O6  1  0.91718800  0.76874100  0.74145500  1.0
  O  O7  1  0.56866600  0.26016400  0.75819400  1.0
  O  O8  1  0.06866600  0.73983600  0.25819400  1.0
  O  O9  1  0.41718800  0.23125900  0.24145500  1.0
  O  O10  1  0.22491200  0.45541200  0.96827000  1.0
  O  O11  1  0.28810700  0.94687700  0.54450000  1.0
  O  O12  1  0.78810700  0.05312300  0.04450000  1.0
  O  O13  1  0.72491200  0.54458800  0.46827000  1.0
  O  O14  1  0.71014300  0.52115100  0.03470300  1.0
  O  O15  1  0.80719700  0.04046900  0.45668300  1.0
  O  O16  1  0.21014300  0.47884900  0.53470300  1.0
  O  O17  1  0.30719700  0.95953100  0.95668300  1.0
