# generated using pymatgen
data_CaFeSiO5
_symmetry_space_group_name_H-M   'P 1'
_cell_length_a   5.52152649
_cell_length_b   5.52451649
_cell_length_c   6.97685460
_cell_angle_alpha   103.81208917
_cell_angle_beta   104.09493395
_cell_angle_gamma   106.60881087
_symmetry_Int_Tables_number   1
_chemical_formula_structural   CaFeSiO5
_chemical_formula_sum   'Ca2 Fe2 Si2 O10'
_cell_volume   186.59847717
_cell_formula_units_Z   2
loop_
 _symmetry_equiv_pos_site_id
 _symmetry_equiv_pos_as_xyz
  1  'x, y, z'
loop_
 _atom_site_type_symbol
 _atom_site_label
 _atom_site_symmetry_multiplicity
 _atom_site_fract_x
 _atom_site_fract_y
 _atom_site_fract_z
 _atom_site_occupancy
  Ca  Ca0  1  0.83016700  0.67098100  0.24684700  1.0
  Ca  Ca1  1  0.17169300  0.33427200  0.74464000  1.0
  Fe  Fe2  1  0.50084400  0.00277700  0.49588600  1.0
  Fe  Fe3  1  0.50077300  0.00263300  0.99582500  1.0
  Si  Si4  1  0.18217800  0.32065700  0.24552200  1.0
  Si  Si5  1  0.81957000  0.68468100  0.74627500  1.0
  O  O6  1  0.38696600  0.31956500  0.10928000  1.0
  O  O7  1  0.18309800  0.11306900  0.38027800  1.0
  O  O8  1  0.61482200  0.68578000  0.88259100  1.0
  O  O9  1  0.81867300  0.89215000  0.61146800  1.0
  O  O10  1  0.75379100  0.38276600  0.58484700  1.0
  O  O11  1  0.12355600  0.74877600  0.90609600  1.0
  O  O12  1  0.24794600  0.62243400  0.40707400  1.0
  O  O13  1  0.87816600  0.25636900  0.08577500  1.0
  O  O14  1  0.43061500  0.07250800  0.74532000  1.0
  O  O15  1  0.57113600  0.93259000  0.24643900  1.0
