# generated using pymatgen
data_CaMn4(CuO4)3
_symmetry_space_group_name_H-M   'P 1'
_cell_length_a   6.40811048
_cell_length_b   6.40817986
_cell_length_c   6.40817918
_cell_angle_alpha   70.54927757
_cell_angle_beta   70.51344020
_cell_angle_gamma   109.47647102
_symmetry_Int_Tables_number   1
_chemical_formula_structural   CaMn4(CuO4)3
_chemical_formula_sum   'Ca1 Mn4 Cu3 O12'
_cell_volume   202.57083381
_cell_formula_units_Z   1
loop_
 _symmetry_equiv_pos_site_id
 _symmetry_equiv_pos_as_xyz
  1  'x, y, z'
loop_
 _atom_site_type_symbol
 _atom_site_label
 _atom_site_symmetry_multiplicity
 _atom_site_fract_x
 _atom_site_fract_y
 _atom_site_fract_z
 _atom_site_occupancy
  Ca  Ca0  1  0.00000200  0.99999900  0.00000000  1.0
  Mn  Mn1  1  0.49999900  0.49999900  0.50000100  1.0
  Mn  Mn2  1  0.99999900  0.50000000  0.00000400  1.0
  Mn  Mn3  1  0.50000500  0.00000400  0.99999800  1.0
  Mn  Mn4  1  0.99999800  0.99999800  0.50000100  1.0
  Cu  Cu5  1  0.00000200  0.50000100  0.49999800  1.0
  Cu  Cu6  1  0.49999900  1.00000000  0.49999900  1.0
  Cu  Cu7  1  0.49999900  0.50000000  0.00000000  1.0
  O  O8  1  0.69012500  0.86143400  0.82868800  1.0
  O  O9  1  0.30987500  0.48118000  0.82869100  1.0
  O  O10  1  0.69012400  0.51881900  0.17130900  1.0
  O  O11  1  0.48111500  0.17145300  0.69034100  1.0
  O  O12  1  0.17139400  0.69027300  0.13835000  1.0
  O  O13  1  0.82861300  0.30973300  0.86164700  1.0
  O  O14  1  0.13820200  0.82853400  0.69033000  1.0
  O  O15  1  0.17138300  0.30973400  0.51888800  1.0
  O  O16  1  0.30987300  0.13856600  0.17131300  1.0
  O  O17  1  0.86179500  0.17146100  0.30967000  1.0
  O  O18  1  0.51888600  0.82854800  0.30965800  1.0
  O  O19  1  0.82861700  0.69026500  0.48110900  1.0
