# generated using pymatgen
data_CaMnCu3(RuO4)3
_symmetry_space_group_name_H-M   'P 1'
_cell_length_a   6.49901122
_cell_length_b   6.49901122
_cell_length_c   6.49901122
_cell_angle_alpha   109.35357607
_cell_angle_beta   109.35357607
_cell_angle_gamma   109.35357607
_symmetry_Int_Tables_number   1
_chemical_formula_structural   CaMnCu3(RuO4)3
_chemical_formula_sum   'Ca1 Mn1 Cu3 Ru3 O12'
_cell_volume   212.22536834
_cell_formula_units_Z   1
loop_
 _symmetry_equiv_pos_site_id
 _symmetry_equiv_pos_as_xyz
  1  'x, y, z'
loop_
 _atom_site_type_symbol
 _atom_site_label
 _atom_site_symmetry_multiplicity
 _atom_site_fract_x
 _atom_site_fract_y
 _atom_site_fract_z
 _atom_site_occupancy
  Ca  Ca0  1  0.00000000  0.00000000  0.00000000  1.0
  Mn  Mn1  1  0.50000000  0.50000000  0.50000000  1.0
  Cu  Cu2  1  0.50000000  0.50000000  0.00000000  1.0
  Cu  Cu3  1  1.00000000  0.50000000  0.50000000  1.0
  Cu  Cu4  1  0.50000000  0.00000000  0.50000000  1.0
  Ru  Ru5  1  1.00000000  0.50000000  0.00000000  1.0
  Ru  Ru6  1  0.50000000  0.00000000  0.00000000  1.0
  Ru  Ru7  1  0.00000000  0.00000000  0.50000000  1.0
  O  O8  1  0.29715700  0.47731800  0.15906300  1.0
  O  O9  1  0.30770400  0.13795800  0.82944300  1.0
  O  O10  1  0.69229600  0.86204200  0.17055700  1.0
  O  O11  1  0.70284300  0.52268200  0.84093700  1.0
  O  O12  1  0.15906300  0.29715700  0.47731800  1.0
  O  O13  1  0.82944300  0.30770400  0.13795800  1.0
  O  O14  1  0.17055700  0.69229600  0.86204200  1.0
  O  O15  1  0.84093700  0.70284300  0.52268200  1.0
  O  O16  1  0.47731800  0.15906300  0.29715700  1.0
  O  O17  1  0.13795800  0.82944300  0.30770400  1.0
  O  O18  1  0.86204200  0.17055700  0.69229600  1.0
  O  O19  1  0.52268200  0.84093700  0.70284300  1.0
