# generated using pymatgen
data_CaNdCoO4
_symmetry_space_group_name_H-M   'P 1'
_cell_length_a   3.77879600
_cell_length_b   3.77879600
_cell_length_c   6.63760150
_cell_angle_alpha   106.53797115
_cell_angle_beta   106.53797117
_cell_angle_gamma   89.99999998
_symmetry_Int_Tables_number   1
_chemical_formula_structural   CaNdCoO4
_chemical_formula_sum   'Ca1 Nd1 Co1 O4'
_cell_volume   86.76140741
_cell_formula_units_Z   1
loop_
 _symmetry_equiv_pos_site_id
 _symmetry_equiv_pos_as_xyz
  1  'x, y, z'
loop_
 _atom_site_type_symbol
 _atom_site_label
 _atom_site_symmetry_multiplicity
 _atom_site_fract_x
 _atom_site_fract_y
 _atom_site_fract_z
 _atom_site_occupancy
  Ca  Ca0  1  0.64108900  0.64108900  0.28217800  1.0
  Nd  Nd1  1  0.35859700  0.35859700  0.71719400  1.0
  Co  Co2  1  0.00489400  0.00489400  0.00978800  1.0
  O  O3  1  0.83070500  0.83070500  0.66141000  1.0
  O  O4  1  0.17129500  0.17129500  0.34259000  1.0
  O  O5  1  0.99671000  0.49671000  0.99342000  1.0
  O  O6  1  0.49671000  0.99671000  0.99342000  1.0
