# generated using pymatgen
data_CaNdCoO4
_symmetry_space_group_name_H-M   'P 1'
_cell_length_a   5.32926400
_cell_length_b   5.34466800
_cell_length_c   6.64447935
_cell_angle_alpha   90.00000000
_cell_angle_beta   113.64255112
_cell_angle_gamma   90.00000000
_symmetry_Int_Tables_number   1
_chemical_formula_structural   CaNdCoO4
_chemical_formula_sum   'Ca2 Nd2 Co2 O8'
_cell_volume   173.37053437
_cell_formula_units_Z   2
loop_
 _symmetry_equiv_pos_site_id
 _symmetry_equiv_pos_as_xyz
  1  'x, y, z'
loop_
 _atom_site_type_symbol
 _atom_site_label
 _atom_site_symmetry_multiplicity
 _atom_site_fract_x
 _atom_site_fract_y
 _atom_site_fract_z
 _atom_site_occupancy
  Ca  Ca0  1  0.60624600  0.25000000  0.21249200  1.0
  Ca  Ca1  1  0.39375400  0.75000000  0.78750800  1.0
  Nd  Nd2  1  0.11129000  0.75000000  0.22258000  1.0
  Nd  Nd3  1  0.88871000  0.25000000  0.77742000  1.0
  Co  Co4  1  0.25118500  0.25000000  0.50237000  1.0
  Co  Co5  1  0.74881500  0.75000000  0.49763000  1.0
  O  O6  1  1.00000000  0.50000000  0.50000000  1.0
  O  O7  1  0.50000000  0.00000000  0.50000000  1.0
  O  O8  1  0.50000000  0.50000000  0.50000000  1.0
  O  O9  1  1.00000000  1.00000000  0.50000000  1.0
  O  O10  1  0.92210100  0.75000000  0.84420200  1.0
  O  O11  1  0.41865800  0.25000000  0.83731600  1.0
  O  O12  1  0.07789900  0.25000000  0.15579800  1.0
  O  O13  1  0.58134200  0.75000000  0.16268400  1.0
