# generated using pymatgen
data_CaNi5H
_symmetry_space_group_name_H-M   'P 1'
_cell_length_a   3.97469783
_cell_length_b   4.97201881
_cell_length_c   4.97201881
_cell_angle_alpha   60.92227668
_cell_angle_beta   89.07256086
_cell_angle_gamma   89.07256086
_symmetry_Int_Tables_number   1
_chemical_formula_structural   CaNi5H
_chemical_formula_sum   'Ca1 Ni5 H1'
_cell_volume   85.85888328
_cell_formula_units_Z   1
loop_
 _symmetry_equiv_pos_site_id
 _symmetry_equiv_pos_as_xyz
  1  'x, y, z'
loop_
 _atom_site_type_symbol
 _atom_site_label
 _atom_site_symmetry_multiplicity
 _atom_site_fract_x
 _atom_site_fract_y
 _atom_site_fract_z
 _atom_site_occupancy
  Ca  Ca0  1  0.02019100  0.00395100  0.00395100  1.0
  Ni  Ni1  1  0.98844600  0.65981000  0.65981000  1.0
  Ni  Ni2  1  0.99024100  0.33807900  0.33807900  1.0
  Ni  Ni3  1  0.48748600  0.49970800  0.49970800  1.0
  Ni  Ni4  1  0.48279300  0.00817900  0.48898500  1.0
  Ni  Ni5  1  0.48279300  0.48898500  0.00817900  1.0
  H  H6  1  0.69414500  0.79711400  0.79711400  1.0
