# generated using pymatgen
data_CaTaNO2
_symmetry_space_group_name_H-M   'P 1'
_cell_length_a   5.56571600
_cell_length_b   5.68551900
_cell_length_c   7.90501176
_cell_angle_alpha   90.00000000
_cell_angle_beta   89.67552562
_cell_angle_gamma   90.00000000
_symmetry_Int_Tables_number   1
_chemical_formula_structural   CaTaNO2
_chemical_formula_sum   'Ca4 Ta4 N4 O8'
_cell_volume   250.14205501
_cell_formula_units_Z   4
loop_
 _symmetry_equiv_pos_site_id
 _symmetry_equiv_pos_as_xyz
  1  'x, y, z'
loop_
 _atom_site_type_symbol
 _atom_site_label
 _atom_site_symmetry_multiplicity
 _atom_site_fract_x
 _atom_site_fract_y
 _atom_site_fract_z
 _atom_site_occupancy
  Ca  Ca0  1  0.51294100  0.45867600  0.25440900  1.0
  Ca  Ca1  1  0.98705900  0.95867600  0.24559100  1.0
  Ca  Ca2  1  0.48705900  0.54132400  0.74559100  1.0
  Ca  Ca3  1  0.01294100  0.04132400  0.75440900  1.0
  Ta  Ta4  1  0.50000000  1.00000000  1.00000000  1.0
  Ta  Ta5  1  0.00000000  0.50000000  0.50000000  1.0
  Ta  Ta6  1  0.50000000  0.00000000  0.50000000  1.0
  Ta  Ta7  1  0.00000000  0.50000000  1.00000000  1.0
  N  N8  1  0.78988000  0.21131600  0.04286600  1.0
  N  N9  1  0.71012000  0.71131600  0.45713400  1.0
  N  N10  1  0.21012000  0.78868400  0.95713400  1.0
  N  N11  1  0.28988000  0.28868400  0.54286600  1.0
  O  O12  1  0.41207300  0.02242000  0.24973100  1.0
  O  O13  1  0.08792700  0.52242000  0.25026900  1.0
  O  O14  1  0.58792700  0.97758000  0.75026900  1.0
  O  O15  1  0.91207300  0.47758000  0.74973100  1.0
  O  O16  1  0.20871000  0.79039500  0.54878100  1.0
  O  O17  1  0.29129000  0.29039500  0.95121900  1.0
  O  O18  1  0.79129000  0.20960500  0.45121900  1.0
  O  O19  1  0.70871000  0.70960500  0.04878100  1.0
