# generated using pymatgen
data_CaTiO3
_symmetry_space_group_name_H-M   'P 1'
_cell_length_a   5.45032853
_cell_length_b   5.45032853
_cell_length_c   5.45032853
_cell_angle_alpha   89.45351422
_cell_angle_beta   60.31152116
_cell_angle_gamma   119.68150017
_symmetry_Int_Tables_number   1
_chemical_formula_structural   CaTiO3
_chemical_formula_sum   'Ca2 Ti2 O6'
_cell_volume   115.02562121
_cell_formula_units_Z   2
loop_
 _symmetry_equiv_pos_site_id
 _symmetry_equiv_pos_as_xyz
  1  'x, y, z'
loop_
 _atom_site_type_symbol
 _atom_site_label
 _atom_site_symmetry_multiplicity
 _atom_site_fract_x
 _atom_site_fract_y
 _atom_site_fract_z
 _atom_site_occupancy
  Ca  Ca0  1  0.01255400  0.26255400  0.75000000  1.0
  Ca  Ca1  1  0.98744600  0.73744600  0.25000000  1.0
  Ti  Ti2  1  0.50000000  1.00000000  0.50000000  1.0
  Ti  Ti3  1  0.50000000  0.50000000  1.00000000  1.0
  O  O4  1  1.00000000  0.29687300  0.20312700  1.0
  O  O5  1  0.41366700  0.16366700  0.25000000  1.0
  O  O6  1  0.50000000  0.29687300  0.70312700  1.0
  O  O7  1  1.00000000  0.70312700  0.79687300  1.0
  O  O8  1  0.50000000  0.70312700  0.29687300  1.0
  O  O9  1  0.58633300  0.83633300  0.75000000  1.0
