# generated using pymatgen
data_CaWF6
_symmetry_space_group_name_H-M   'P 1'
_cell_length_a   5.73811243
_cell_length_b   5.73811243
_cell_length_c   6.05017353
_cell_angle_alpha   61.69203521
_cell_angle_beta   61.69203521
_cell_angle_gamma   59.99999502
_symmetry_Int_Tables_number   1
_chemical_formula_structural   CaWF6
_chemical_formula_sum   'Ca1 W1 F6'
_cell_volume   144.35671189
_cell_formula_units_Z   1
loop_
 _symmetry_equiv_pos_site_id
 _symmetry_equiv_pos_as_xyz
  1  'x, y, z'
loop_
 _atom_site_type_symbol
 _atom_site_label
 _atom_site_symmetry_multiplicity
 _atom_site_fract_x
 _atom_site_fract_y
 _atom_site_fract_z
 _atom_site_occupancy
  Ca  Ca0  1  0.50000000  0.50000000  0.50000000  1.0
  W  W1  1  0.00000000  0.00000000  0.00000000  1.0
  F  F2  1  0.85819500  0.67378400  0.23933100  1.0
  F  F3  1  0.22869000  0.85819500  0.23933100  1.0
  F  F4  1  0.32621600  0.77131000  0.76066900  1.0
  F  F5  1  0.77131000  0.14180500  0.76066900  1.0
  F  F6  1  0.14180500  0.32621600  0.76066900  1.0
  F  F7  1  0.67378400  0.22869000  0.23933100  1.0
