# generated using pymatgen
data_CaYb3Mn4O12
_symmetry_space_group_name_H-M   'P 1'
_cell_length_a   5.25183800
_cell_length_b   5.36431500
_cell_length_c   7.52266300
_cell_angle_alpha   90.00000000
_cell_angle_beta   90.00000000
_cell_angle_gamma   89.99962617
_symmetry_Int_Tables_number   1
_chemical_formula_structural   CaYb3Mn4O12
_chemical_formula_sum   'Ca1 Yb3 Mn4 O12'
_cell_volume   211.93232387
_cell_formula_units_Z   1
loop_
 _symmetry_equiv_pos_site_id
 _symmetry_equiv_pos_as_xyz
  1  'x, y, z'
loop_
 _atom_site_type_symbol
 _atom_site_label
 _atom_site_symmetry_multiplicity
 _atom_site_fract_x
 _atom_site_fract_y
 _atom_site_fract_z
 _atom_site_occupancy
  Ca  Ca0  1  0.99148700  0.54719600  0.50000000  1.0
  Yb  Yb1  1  0.51102100  0.05272800  0.50000000  1.0
  Yb  Yb2  1  0.01116500  0.44560200  0.00000000  1.0
  Yb  Yb3  1  0.48875100  0.94726800  0.00000000  1.0
  Mn  Mn4  1  0.49993700  0.50000700  0.75127000  1.0
  Mn  Mn5  1  0.99986100  0.99934700  0.24911900  1.0
  Mn  Mn6  1  0.49993700  0.50000700  0.24873000  1.0
  Mn  Mn7  1  0.99986100  0.99934700  0.75088100  1.0
  O  O8  1  0.69905400  0.79952400  0.28874700  1.0
  O  O9  1  0.79690300  0.29568800  0.71100500  1.0
  O  O10  1  0.29721500  0.20397000  0.79229000  1.0
  O  O11  1  0.20319000  0.70459800  0.20574500  1.0
  O  O12  1  0.29721500  0.20397000  0.20771000  1.0
  O  O13  1  0.20319000  0.70459800  0.79425500  1.0
  O  O14  1  0.69905400  0.79952400  0.71125300  1.0
  O  O15  1  0.79690300  0.29568800  0.28899500  1.0
  O  O16  1  0.08056100  0.98192600  0.50000000  1.0
  O  O17  1  0.42394600  0.47911800  0.50000000  1.0
  O  O18  1  0.91853100  0.01992500  0.00000000  1.0
  O  O19  1  0.58221500  0.51996700  0.00000000  1.0
