# generated using pymatgen
data_Cd(GaSe2)2
_symmetry_space_group_name_H-M   'P 1'
_cell_length_a   5.87532200
_cell_length_b   5.87532200
_cell_length_c   6.88953383
_cell_angle_alpha   115.23897803
_cell_angle_beta   115.23897803
_cell_angle_gamma   90.00000000
_symmetry_Int_Tables_number   1
_chemical_formula_structural   Cd(GaSe2)2
_chemical_formula_sum   'Cd1 Ga2 Se4'
_cell_volume   189.71853197
_cell_formula_units_Z   1
loop_
 _symmetry_equiv_pos_site_id
 _symmetry_equiv_pos_as_xyz
  1  'x, y, z'
loop_
 _atom_site_type_symbol
 _atom_site_label
 _atom_site_symmetry_multiplicity
 _atom_site_fract_x
 _atom_site_fract_y
 _atom_site_fract_z
 _atom_site_occupancy
  Cd  Cd0  1  0.00000000  0.00000000  0.00000000  1.0
  Ga  Ga1  1  0.25000000  0.75000000  0.50000000  1.0
  Ga  Ga2  1  0.50000000  0.50000000  0.00000000  1.0
  Se  Se3  1  0.86526000  0.87588800  0.27584200  1.0
  Se  Se4  1  0.41058100  0.39995300  0.27584100  1.0
  Se  Se5  1  0.12411200  0.58941900  0.72415900  1.0
  Se  Se6  1  0.60004600  0.13473900  0.72415800  1.0
