# generated using pymatgen
data_Cd2InAgTe4
_symmetry_space_group_name_H-M   'P 1'
_cell_length_a   6.61426600
_cell_length_b   6.61426600
_cell_length_c   8.05439426
_cell_angle_alpha   114.24252142
_cell_angle_beta   114.24252143
_cell_angle_gamma   90.00000000
_symmetry_Int_Tables_number   1
_chemical_formula_structural   Cd2InAgTe4
_chemical_formula_sum   'Cd2 In1 Ag1 Te4'
_cell_volume   286.87489177
_cell_formula_units_Z   1
loop_
 _symmetry_equiv_pos_site_id
 _symmetry_equiv_pos_as_xyz
  1  'x, y, z'
loop_
 _atom_site_type_symbol
 _atom_site_label
 _atom_site_symmetry_multiplicity
 _atom_site_fract_x
 _atom_site_fract_y
 _atom_site_fract_z
 _atom_site_occupancy
  Cd  Cd0  1  0.25000000  0.75000000  0.50000000  1.0
  Cd  Cd1  1  0.75000000  0.25000000  0.50000000  1.0
  In  In2  1  0.50000000  0.50000000  0.00000000  1.0
  Ag  Ag3  1  0.00000000  0.00000000  0.00000000  1.0
  Te  Te4  1  0.37096000  0.37096000  0.24537300  1.0
  Te  Te5  1  0.62904000  0.12558700  0.75462700  1.0
  Te  Te6  1  0.87441300  0.87441300  0.24537300  1.0
  Te  Te7  1  0.12558700  0.62904000  0.75462700  1.0
