# generated using pymatgen
data_Cd2InAgS4
_symmetry_space_group_name_H-M   'P 1'
_cell_length_a   4.17816200
_cell_length_b   7.27603983
_cell_length_c   7.96226704
_cell_angle_alpha   116.52053237
_cell_angle_beta   105.21089273
_cell_angle_gamma   90.00000000
_symmetry_Int_Tables_number   1
_chemical_formula_structural   Cd2InAgS4
_chemical_formula_sum   'Cd2 In1 Ag1 S4'
_cell_volume   207.06557117
_cell_formula_units_Z   1
loop_
 _symmetry_equiv_pos_site_id
 _symmetry_equiv_pos_as_xyz
  1  'x, y, z'
loop_
 _atom_site_type_symbol
 _atom_site_label
 _atom_site_symmetry_multiplicity
 _atom_site_fract_x
 _atom_site_fract_y
 _atom_site_fract_z
 _atom_site_occupancy
  Cd  Cd0  1  0.49770000  0.17223600  0.99540000  1.0
  Cd  Cd1  1  0.00221500  0.65838900  0.00443000  1.0
  In  In2  1  0.24783000  0.59054200  0.49566000  1.0
  Ag  Ag3  1  0.75068000  0.07907500  0.50136000  1.0
  S  S4  1  0.93868100  0.27060800  0.87736200  1.0
  S  S5  1  0.43440200  0.76878500  0.86880400  1.0
  S  S6  1  0.18850100  0.85158100  0.37700200  1.0
  S  S7  1  0.69219700  0.36078400  0.38439400  1.0
