# generated using pymatgen
data_Cd3(InSe3)2
_symmetry_space_group_name_H-M   'P 1'
_cell_length_a   7.48462804
_cell_length_b   7.48462804
_cell_length_c   8.18734091
_cell_angle_alpha   62.80080093
_cell_angle_beta   62.80080093
_cell_angle_gamma   59.99999965
_symmetry_Int_Tables_number   1
_chemical_formula_structural   Cd3(InSe3)2
_chemical_formula_sum   'Cd3 In2 Se6'
_cell_volume   337.37367297
_cell_formula_units_Z   1
loop_
 _symmetry_equiv_pos_site_id
 _symmetry_equiv_pos_as_xyz
  1  'x, y, z'
loop_
 _atom_site_type_symbol
 _atom_site_label
 _atom_site_symmetry_multiplicity
 _atom_site_fract_x
 _atom_site_fract_y
 _atom_site_fract_z
 _atom_site_occupancy
  Cd  Cd0  1  0.48041100  0.16096800  0.50162300  1.0
  Cd  Cd1  1  0.85699800  0.48041100  0.50162300  1.0
  Cd  Cd2  1  0.16096800  0.85699800  0.50162300  1.0
  In  In3  1  0.66642400  0.66642400  0.00072800  1.0
  In  In4  1  0.00269600  0.00269600  0.99191200  1.0
  Se  Se5  1  0.37154800  0.04753700  0.88854400  1.0
  Se  Se6  1  0.69237100  0.37154800  0.88854400  1.0
  Se  Se7  1  0.04753700  0.69237100  0.88854400  1.0
  Se  Se8  1  0.87539500  0.87539500  0.37381500  1.0
  Se  Se9  1  0.22148000  0.22148000  0.33556000  1.0
  Se  Se10  1  0.53915900  0.53915900  0.38252300  1.0
