# generated using pymatgen
data_CdBiIO2
_symmetry_space_group_name_H-M   'P 1'
_cell_length_a   4.02436200
_cell_length_b   4.02436200
_cell_length_c   7.19259436
_cell_angle_alpha   106.24572200
_cell_angle_beta   106.24572200
_cell_angle_gamma   90.00000000
_symmetry_Int_Tables_number   1
_chemical_formula_structural   CdBiIO2
_chemical_formula_sum   'Cd1 Bi1 I1 O2'
_cell_volume   106.98303103
_cell_formula_units_Z   1
loop_
 _symmetry_equiv_pos_site_id
 _symmetry_equiv_pos_as_xyz
  1  'x, y, z'
loop_
 _atom_site_type_symbol
 _atom_site_label
 _atom_site_symmetry_multiplicity
 _atom_site_fract_x
 _atom_site_fract_y
 _atom_site_fract_z
 _atom_site_occupancy
  Cd  Cd0  1  0.83670200  0.83670200  0.67340400  1.0
  Bi  Bi1  1  0.17128100  0.17128100  0.34256200  1.0
  I  I2  1  0.48922900  0.48922900  0.97845800  1.0
  O  O3  1  0.75139400  0.25139400  0.50278800  1.0
  O  O4  1  0.25139400  0.75139400  0.50278800  1.0
