# generated using pymatgen
data_CdCl2
_symmetry_space_group_name_H-M   'P 1'
_cell_length_a   3.91352400
_cell_length_b   3.92279914
_cell_length_c   6.32504623
_cell_angle_alpha   95.72328547
_cell_angle_beta   90.00000000
_cell_angle_gamma   119.92181639
_symmetry_Int_Tables_number   1
_chemical_formula_structural   CdCl2
_chemical_formula_sum   'Cd1 Cl2'
_cell_volume   83.59994689
_cell_formula_units_Z   1
loop_
 _symmetry_equiv_pos_site_id
 _symmetry_equiv_pos_as_xyz
  1  'x, y, z'
loop_
 _atom_site_type_symbol
 _atom_site_label
 _atom_site_symmetry_multiplicity
 _atom_site_fract_x
 _atom_site_fract_y
 _atom_site_fract_z
 _atom_site_occupancy
  Cd  Cd0  1  0.50000000  0.00000000  0.50000000  1.0
  Cl  Cl1  1  0.80608500  0.61217000  0.27112600  1.0
  Cl  Cl2  1  0.19391500  0.38783000  0.72887400  1.0
