# generated using pymatgen
data_CdMoO4
_symmetry_space_group_name_H-M   'P 1'
_cell_length_a   5.25495400
_cell_length_b   5.25495400
_cell_length_c   6.80978995
_cell_angle_alpha   112.69578573
_cell_angle_beta   112.69578573
_cell_angle_gamma   90.00000000
_symmetry_Int_Tables_number   1
_chemical_formula_structural   CdMoO4
_chemical_formula_sum   'Cd2 Mo2 O8'
_cell_volume   157.58679981
_cell_formula_units_Z   2
loop_
 _symmetry_equiv_pos_site_id
 _symmetry_equiv_pos_as_xyz
  1  'x, y, z'
loop_
 _atom_site_type_symbol
 _atom_site_label
 _atom_site_symmetry_multiplicity
 _atom_site_fract_x
 _atom_site_fract_y
 _atom_site_fract_z
 _atom_site_occupancy
  Cd  Cd0  1  0.75000000  0.25000000  0.50000000  1.0
  Cd  Cd1  1  0.00000000  0.00000000  0.00000000  1.0
  Mo  Mo2  1  0.25000000  0.75000000  0.50000000  1.0
  Mo  Mo3  1  0.50000000  0.50000000  0.00000000  1.0
  O  O4  1  0.43003500  0.34141900  0.17172200  1.0
  O  O5  1  0.58030300  0.68003500  0.67172200  1.0
  O  O6  1  0.09141900  0.99168700  0.67172200  1.0
  O  O7  1  0.74168700  0.83030300  0.17172200  1.0
  O  O8  1  0.00831300  0.41969700  0.32827800  1.0
  O  O9  1  0.65858100  0.25831300  0.82827800  1.0
  O  O10  1  0.16969700  0.56996500  0.82827800  1.0
  O  O11  1  0.31996500  0.90858100  0.32827800  1.0
