# generated using pymatgen
data_CdS
_symmetry_space_group_name_H-M   'P 1'
_cell_length_a   4.20653600
_cell_length_b   4.20653510
_cell_length_c   6.84292900
_cell_angle_alpha   90.00000000
_cell_angle_beta   90.00000000
_cell_angle_gamma   120.00000707
_symmetry_Int_Tables_number   1
_chemical_formula_structural   CdS
_chemical_formula_sum   'Cd2 S2'
_cell_volume   104.86287529
_cell_formula_units_Z   2
loop_
 _symmetry_equiv_pos_site_id
 _symmetry_equiv_pos_as_xyz
  1  'x, y, z'
loop_
 _atom_site_type_symbol
 _atom_site_label
 _atom_site_symmetry_multiplicity
 _atom_site_fract_x
 _atom_site_fract_y
 _atom_site_fract_z
 _atom_site_occupancy
  Cd  Cd0  1  0.33333333  0.66666667  0.49984300  1.0
  Cd  Cd1  1  0.66666667  0.33333333  0.99984300  1.0
  S  S2  1  0.33333333  0.66666667  0.12315700  1.0
  S  S3  1  0.66666667  0.33333333  0.62315700  1.0
