# generated using pymatgen
data_CdSnAs2
_symmetry_space_group_name_H-M   'P 1'
_cell_length_a   6.22141000
_cell_length_b   6.22141000
_cell_length_c   7.52243859
_cell_angle_alpha   114.42636750
_cell_angle_beta   114.42636748
_cell_angle_gamma   90.00000001
_symmetry_Int_Tables_number   1
_chemical_formula_structural   CdSnAs2
_chemical_formula_sum   'Cd2 Sn2 As4'
_cell_volume   236.18273180
_cell_formula_units_Z   2
loop_
 _symmetry_equiv_pos_site_id
 _symmetry_equiv_pos_as_xyz
  1  'x, y, z'
loop_
 _atom_site_type_symbol
 _atom_site_label
 _atom_site_symmetry_multiplicity
 _atom_site_fract_x
 _atom_site_fract_y
 _atom_site_fract_z
 _atom_site_occupancy
  Cd  Cd0  1  0.75000000  0.25000000  0.50000000  1.0
  Cd  Cd1  1  0.00000000  0.00000000  0.00000000  1.0
  Sn  Sn2  1  0.50000000  0.50000000  0.00000000  1.0
  Sn  Sn3  1  0.25000000  0.75000000  0.50000000  1.0
  As  As4  1  0.87500000  0.37844800  0.25000000  1.0
  As  As5  1  0.12844800  0.12500000  0.75000000  1.0
  As  As6  1  0.37500000  0.87155200  0.25000000  1.0
  As  As7  1  0.62155200  0.62500000  0.75000000  1.0
