# generated using pymatgen
data_Ce2InGe2
_symmetry_space_group_name_H-M   'P 1'
_cell_length_a   4.36509900
_cell_length_b   7.49532700
_cell_length_c   7.49532700
_cell_angle_alpha   90.00000000
_cell_angle_beta   90.00000000
_cell_angle_gamma   90.00000000
_symmetry_Int_Tables_number   1
_chemical_formula_structural   Ce2InGe2
_chemical_formula_sum   'Ce4 In2 Ge4'
_cell_volume   245.23094246
_cell_formula_units_Z   2
loop_
 _symmetry_equiv_pos_site_id
 _symmetry_equiv_pos_as_xyz
  1  'x, y, z'
loop_
 _atom_site_type_symbol
 _atom_site_label
 _atom_site_symmetry_multiplicity
 _atom_site_fract_x
 _atom_site_fract_y
 _atom_site_fract_z
 _atom_site_occupancy
  Ce  Ce0  1  0.50000000  0.32040700  0.82040700  1.0
  Ce  Ce1  1  0.50000000  0.82040700  0.67959300  1.0
  Ce  Ce2  1  0.50000000  0.17959300  0.32040700  1.0
  Ce  Ce3  1  0.50000000  0.67959300  0.17959300  1.0
  In  In4  1  0.00000000  0.00000000  0.00000000  1.0
  In  In5  1  1.00000000  0.50000000  0.50000000  1.0
  Ge  Ge6  1  1.00000000  0.61984600  0.88015400  1.0
  Ge  Ge7  1  1.00000000  0.38015400  0.11984600  1.0
  Ge  Ge8  1  1.00000000  0.88015400  0.38015400  1.0
  Ge  Ge9  1  1.00000000  0.11984600  0.61984600  1.0
