# generated using pymatgen
data_Ce2Mg
_symmetry_space_group_name_H-M   'P 1'
_cell_length_a   3.25311800
_cell_length_b   5.58474327
_cell_length_c   9.22863751
_cell_angle_alpha   77.03835298
_cell_angle_beta   79.84851801
_cell_angle_gamma   73.06716644
_symmetry_Int_Tables_number   1
_chemical_formula_structural   Ce2Mg
_chemical_formula_sum   'Ce4 Mg2'
_cell_volume   155.19835486
_cell_formula_units_Z   2
loop_
 _symmetry_equiv_pos_site_id
 _symmetry_equiv_pos_as_xyz
  1  'x, y, z'
loop_
 _atom_site_type_symbol
 _atom_site_label
 _atom_site_symmetry_multiplicity
 _atom_site_fract_x
 _atom_site_fract_y
 _atom_site_fract_z
 _atom_site_occupancy
  Ce  Ce0  1  0.31340100  0.26263400  0.11056400  1.0
  Ce  Ce1  1  0.01916500  0.74002700  0.22164300  1.0
  Ce  Ce2  1  0.98083500  0.25997300  0.77835700  1.0
  Ce  Ce3  1  0.68659900  0.73736600  0.88943600  1.0
  Mg  Mg4  1  0.65827400  0.24180700  0.44164500  1.0
  Mg  Mg5  1  0.34172600  0.75819300  0.55835500  1.0
