# generated using pymatgen
data_Ce2Si3Ni
_symmetry_space_group_name_H-M   'P 1'
_cell_length_a   4.07493600
_cell_length_b   4.07493592
_cell_length_c   8.01556800
_cell_angle_alpha   90.00000000
_cell_angle_beta   90.00000000
_cell_angle_gamma   120.00000066
_symmetry_Int_Tables_number   1
_chemical_formula_structural   Ce2Si3Ni
_chemical_formula_sum   'Ce2 Si3 Ni1'
_cell_volume   115.26740277
_cell_formula_units_Z   1
loop_
 _symmetry_equiv_pos_site_id
 _symmetry_equiv_pos_as_xyz
  1  'x, y, z'
loop_
 _atom_site_type_symbol
 _atom_site_label
 _atom_site_symmetry_multiplicity
 _atom_site_fract_x
 _atom_site_fract_y
 _atom_site_fract_z
 _atom_site_occupancy
  Ce  Ce0  1  0.66666667  0.33333333  0.75717800  1.0
  Ce  Ce1  1  0.66666667  0.33333333  0.24282200  1.0
  Si  Si2  1  0.33333333  0.66666667  0.50000000  1.0
  Si  Si3  1  0.00000000  0.00000000  0.00000000  1.0
  Si  Si4  1  0.00000000  0.00000000  0.50000000  1.0
  Ni  Ni5  1  0.33333333  0.66666667  1.00000000  1.0
