# generated using pymatgen
data_Ce2ZnNi2
_symmetry_space_group_name_H-M   'P 1'
_cell_length_a   4.40117000
_cell_length_b   5.24455288
_cell_length_c   5.24455288
_cell_angle_alpha   62.64753146
_cell_angle_beta   65.19101729
_cell_angle_gamma   65.19101730
_symmetry_Int_Tables_number   1
_chemical_formula_structural   Ce2ZnNi2
_chemical_formula_sum   'Ce2 Zn1 Ni2'
_cell_volume   93.65674652
_cell_formula_units_Z   1
loop_
 _symmetry_equiv_pos_site_id
 _symmetry_equiv_pos_as_xyz
  1  'x, y, z'
loop_
 _atom_site_type_symbol
 _atom_site_label
 _atom_site_symmetry_multiplicity
 _atom_site_fract_x
 _atom_site_fract_y
 _atom_site_fract_z
 _atom_site_occupancy
  Ce  Ce0  1  0.20130800  0.29869200  0.29869200  1.0
  Ce  Ce1  1  0.79869200  0.70130800  0.70130800  1.0
  Zn  Zn2  1  0.00000000  0.00000000  0.00000000  1.0
  Ni  Ni3  1  0.50000000  0.73372700  0.26627300  1.0
  Ni  Ni4  1  0.50000000  0.26627300  0.73372700  1.0
