# generated using pymatgen
data_Ce3Ga
_symmetry_space_group_name_H-M   'P 1'
_cell_length_a   5.08181200
_cell_length_b   6.74206166
_cell_length_c   6.74206066
_cell_angle_alpha   119.99999177
_cell_angle_beta   90.00000000
_cell_angle_gamma   90.00000000
_symmetry_Int_Tables_number   1
_chemical_formula_structural   Ce3Ga
_chemical_formula_sum   'Ce6 Ga2'
_cell_volume   200.04819539
_cell_formula_units_Z   2
loop_
 _symmetry_equiv_pos_site_id
 _symmetry_equiv_pos_as_xyz
  1  'x, y, z'
loop_
 _atom_site_type_symbol
 _atom_site_label
 _atom_site_symmetry_multiplicity
 _atom_site_fract_x
 _atom_site_fract_y
 _atom_site_fract_z
 _atom_site_occupancy
  Ce  Ce0  1  0.75000000  0.82018300  0.17981800  1.0
  Ce  Ce1  1  0.75000000  0.35963400  0.17981800  1.0
  Ce  Ce2  1  0.75000000  0.82018200  0.64036600  1.0
  Ce  Ce3  1  0.24999900  0.17981700  0.82018300  1.0
  Ce  Ce4  1  0.24999900  0.64036500  0.82018200  1.0
  Ce  Ce5  1  0.24999900  0.17981700  0.35963400  1.0
  Ga  Ga6  1  0.24999900  0.66666667  0.33333333  1.0
  Ga  Ga7  1  0.75000000  0.33333333  0.66666667  1.0
