# generated using pymatgen
data_Ce3MnBi5
_symmetry_space_group_name_H-M   'P 1'
_cell_length_a   6.43370100
_cell_length_b   9.40881200
_cell_length_c   9.40881182
_cell_angle_alpha   120.00000064
_cell_angle_beta   90.00000000
_cell_angle_gamma   90.00000000
_symmetry_Int_Tables_number   1
_chemical_formula_structural   Ce3MnBi5
_chemical_formula_sum   'Ce6 Mn2 Bi10'
_cell_volume   493.24316527
_cell_formula_units_Z   2
loop_
 _symmetry_equiv_pos_site_id
 _symmetry_equiv_pos_as_xyz
  1  'x, y, z'
loop_
 _atom_site_type_symbol
 _atom_site_label
 _atom_site_symmetry_multiplicity
 _atom_site_fract_x
 _atom_site_fract_y
 _atom_site_fract_z
 _atom_site_occupancy
  Ce  Ce0  1  0.75000000  0.38147100  0.38147100  1.0
  Ce  Ce1  1  0.25000000  0.61852900  0.61852900  1.0
  Ce  Ce2  1  0.75000000  0.61852900  0.00000000  1.0
  Ce  Ce3  1  0.75000000  0.00000000  0.61852900  1.0
  Ce  Ce4  1  0.25000000  0.00000000  0.38147100  1.0
  Ce  Ce5  1  0.25000000  0.38147100  0.00000000  1.0
  Mn  Mn6  1  0.00000000  0.00000000  0.00000000  1.0
  Mn  Mn7  1  0.50000000  0.00000000  0.00000000  1.0
  Bi  Bi8  1  0.25000000  0.75412500  1.00000000  1.0
  Bi  Bi9  1  0.75000000  0.24587500  0.00000000  1.0
  Bi  Bi10  1  0.50000000  0.66666667  0.33333333  1.0
  Bi  Bi11  1  0.75000000  0.00000000  0.24587500  1.0
  Bi  Bi12  1  0.75000000  0.75412500  0.75412500  1.0
  Bi  Bi13  1  0.25000000  0.24587500  0.24587500  1.0
  Bi  Bi14  1  0.00000000  0.33333333  0.66666667  1.0
  Bi  Bi15  1  0.25000000  0.00000000  0.75412500  1.0
  Bi  Bi16  1  1.00000000  0.66666667  0.33333333  1.0
  Bi  Bi17  1  0.50000000  0.33333333  0.66666667  1.0
