# generated using pymatgen
data_Ce3Pt4
_symmetry_space_group_name_H-M   'P 1'
_cell_length_a   5.73256711
_cell_length_b   8.06025361
_cell_length_c   8.06025361
_cell_angle_alpha   114.56313238
_cell_angle_beta   103.71375889
_cell_angle_gamma   103.71375889
_symmetry_Int_Tables_number   1
_chemical_formula_structural   Ce3Pt4
_chemical_formula_sum   'Ce6 Pt8'
_cell_volume   304.40785830
_cell_formula_units_Z   2
loop_
 _symmetry_equiv_pos_site_id
 _symmetry_equiv_pos_as_xyz
  1  'x, y, z'
loop_
 _atom_site_type_symbol
 _atom_site_label
 _atom_site_symmetry_multiplicity
 _atom_site_fract_x
 _atom_site_fract_y
 _atom_site_fract_z
 _atom_site_occupancy
  Ce  Ce0  1  0.59566300  0.87731100  0.62203900  1.0
  Ce  Ce1  1  0.97362400  0.37796100  0.25527200  1.0
  Ce  Ce2  1  0.71835200  0.74472800  0.12268900  1.0
  Ce  Ce3  1  0.40433700  0.12268900  0.37796100  1.0
  Ce  Ce4  1  0.02637600  0.62203900  0.74472800  1.0
  Ce  Ce5  1  0.28164800  0.25527200  0.87731100  1.0
  Pt  Pt6  1  0.00000000  0.00000000  0.00000000  1.0
  Pt  Pt7  1  0.50000000  0.00000000  0.00000000  1.0
  Pt  Pt8  1  0.77672600  0.32854400  0.83631000  1.0
  Pt  Pt9  1  0.94041600  0.16369000  0.49223400  1.0
  Pt  Pt10  1  0.44818200  0.50776600  0.67145600  1.0
  Pt  Pt11  1  0.22327400  0.67145600  0.16369000  1.0
  Pt  Pt12  1  0.05958400  0.83631000  0.50776600  1.0
  Pt  Pt13  1  0.55181800  0.49223400  0.32854400  1.0
