# generated using pymatgen
data_Ce5Ge3C
_symmetry_space_group_name_H-M   'P 1'
_cell_length_a   6.26707900
_cell_length_b   8.85652333
_cell_length_c   8.85652283
_cell_angle_alpha   120.00000060
_cell_angle_beta   90.00000000
_cell_angle_gamma   90.00000000
_symmetry_Int_Tables_number   1
_chemical_formula_structural   Ce5Ge3C
_chemical_formula_sum   'Ce10 Ge6 C2'
_cell_volume   425.71829664
_cell_formula_units_Z   2
loop_
 _symmetry_equiv_pos_site_id
 _symmetry_equiv_pos_as_xyz
  1  'x, y, z'
loop_
 _atom_site_type_symbol
 _atom_site_label
 _atom_site_symmetry_multiplicity
 _atom_site_fract_x
 _atom_site_fract_y
 _atom_site_fract_z
 _atom_site_occupancy
  Ce  Ce0  1  0.00000000  0.33333333  0.66666667  1.0
  Ce  Ce1  1  0.00000000  0.66666667  0.33333333  1.0
  Ce  Ce2  1  0.50000000  0.66666667  0.33333333  1.0
  Ce  Ce3  1  0.50000000  0.33333333  0.66666667  1.0
  Ce  Ce4  1  0.25000000  0.22644400  1.00000000  1.0
  Ce  Ce5  1  0.25000000  0.77355600  0.77355600  1.0
  Ce  Ce6  1  0.25000000  0.00000000  0.22644400  1.0
  Ce  Ce7  1  0.75000000  0.77355600  0.00000000  1.0
  Ce  Ce8  1  0.75000000  0.22644400  0.22644400  1.0
  Ce  Ce9  1  0.75000000  0.00000000  0.77355600  1.0
  Ge  Ge10  1  0.25000000  0.60492300  1.00000000  1.0
  Ge  Ge11  1  0.25000000  0.39507700  0.39507700  1.0
  Ge  Ge12  1  0.25000000  0.00000000  0.60492300  1.0
  Ge  Ge13  1  0.75000000  0.39507700  0.00000000  1.0
  Ge  Ge14  1  0.75000000  0.60492300  0.60492300  1.0
  Ge  Ge15  1  0.75000000  0.00000000  0.39507700  1.0
  C  C16  1  0.00000000  0.00000000  0.00000000  1.0
  C  C17  1  0.50000000  0.00000000  0.00000000  1.0
