# generated using pymatgen
data_CeHfO4
_symmetry_space_group_name_H-M   'P 1'
_cell_length_a   5.24155039
_cell_length_b   5.44377395
_cell_length_c   6.57698744
_cell_angle_alpha   111.87396345
_cell_angle_beta   110.83020743
_cell_angle_gamma   95.94677663
_symmetry_Int_Tables_number   1
_chemical_formula_structural   CeHfO4
_chemical_formula_sum   'Ce2 Hf2 O8'
_cell_volume   156.62652574
_cell_formula_units_Z   2
loop_
 _symmetry_equiv_pos_site_id
 _symmetry_equiv_pos_as_xyz
  1  'x, y, z'
loop_
 _atom_site_type_symbol
 _atom_site_label
 _atom_site_symmetry_multiplicity
 _atom_site_fract_x
 _atom_site_fract_y
 _atom_site_fract_z
 _atom_site_occupancy
  Ce  Ce0  1  0.88594600  0.13594600  0.27189200  1.0
  Ce  Ce1  1  0.11405400  0.86405400  0.72810800  1.0
  Hf  Hf2  1  0.65361900  0.40361900  0.80723800  1.0
  Hf  Hf3  1  0.34638100  0.59638100  0.19276200  1.0
  O  O4  1  0.27863100  0.11522200  0.56606000  1.0
  O  O5  1  0.78742900  0.45083800  0.56606000  1.0
  O  O6  1  0.48344600  0.71673900  0.95004300  1.0
  O  O7  1  0.96659700  0.23330400  0.95004300  1.0
  O  O8  1  0.03340300  0.76669600  0.04995700  1.0
  O  O9  1  0.51655400  0.28326100  0.04995700  1.0
  O  O10  1  0.21257100  0.54916200  0.43394000  1.0
  O  O11  1  0.72136900  0.88477800  0.43394000  1.0
