# generated using pymatgen
data_CeHgPd
_symmetry_space_group_name_H-M   'P 1'
_cell_length_a   3.91121300
_cell_length_b   7.83751200
_cell_length_c   7.83751157
_cell_angle_alpha   120.00000181
_cell_angle_beta   90.00000000
_cell_angle_gamma   90.00000000
_symmetry_Int_Tables_number   1
_chemical_formula_structural   CeHgPd
_chemical_formula_sum   'Ce3 Hg3 Pd3'
_cell_volume   208.06474818
_cell_formula_units_Z   3
loop_
 _symmetry_equiv_pos_site_id
 _symmetry_equiv_pos_as_xyz
  1  'x, y, z'
loop_
 _atom_site_type_symbol
 _atom_site_label
 _atom_site_symmetry_multiplicity
 _atom_site_fract_x
 _atom_site_fract_y
 _atom_site_fract_z
 _atom_site_occupancy
  Ce  Ce0  1  0.50000000  0.60029700  0.00000000  1.0
  Ce  Ce1  1  0.50000000  0.39970300  0.39970300  1.0
  Ce  Ce2  1  0.50000000  0.00000000  0.60029700  1.0
  Hg  Hg3  1  0.00000000  0.26496500  0.00000000  1.0
  Hg  Hg4  1  0.00000000  0.73503500  0.73503500  1.0
  Hg  Hg5  1  1.00000000  0.00000000  0.26496500  1.0
  Pd  Pd6  1  0.00000000  0.33333333  0.66666667  1.0
  Pd  Pd7  1  1.00000000  0.66666667  0.33333333  1.0
  Pd  Pd8  1  0.50000000  0.00000000  0.00000000  1.0
