# generated using pymatgen
data_CeI3
_symmetry_space_group_name_H-M   'P 1'
_cell_length_a   4.35024000
_cell_length_b   7.86489651
_cell_length_c   10.17955900
_cell_angle_alpha   90.00000000
_cell_angle_beta   90.00000000
_cell_angle_gamma   106.05503358
_symmetry_Int_Tables_number   1
_chemical_formula_structural   CeI3
_chemical_formula_sum   'Ce2 I6'
_cell_volume   334.70099155
_cell_formula_units_Z   2
loop_
 _symmetry_equiv_pos_site_id
 _symmetry_equiv_pos_as_xyz
  1  'x, y, z'
loop_
 _atom_site_type_symbol
 _atom_site_label
 _atom_site_symmetry_multiplicity
 _atom_site_fract_x
 _atom_site_fract_y
 _atom_site_fract_z
 _atom_site_occupancy
  Ce  Ce0  1  0.74283300  0.48566600  0.75000000  1.0
  Ce  Ce1  1  0.25716700  0.51433400  0.25000000  1.0
  I  I2  1  0.34828100  0.69656200  0.93295400  1.0
  I  I3  1  0.65171900  0.30343800  0.06704600  1.0
  I  I4  1  0.65171900  0.30343800  0.43295400  1.0
  I  I5  1  0.34828100  0.69656200  0.56704600  1.0
  I  I6  1  0.09110200  0.18220400  0.75000000  1.0
  I  I7  1  0.90889800  0.81779600  0.25000000  1.0
