# generated using pymatgen
data_CeInPt
_symmetry_space_group_name_H-M   'P 1'
_cell_length_a   4.07303400
_cell_length_b   7.63254200
_cell_length_c   7.63254177
_cell_angle_alpha   120.00000100
_cell_angle_beta   90.00000000
_cell_angle_gamma   90.00000000
_symmetry_Int_Tables_number   1
_chemical_formula_structural   CeInPt
_chemical_formula_sum   'Ce3 In3 Pt3'
_cell_volume   205.48827921
_cell_formula_units_Z   3
loop_
 _symmetry_equiv_pos_site_id
 _symmetry_equiv_pos_as_xyz
  1  'x, y, z'
loop_
 _atom_site_type_symbol
 _atom_site_label
 _atom_site_symmetry_multiplicity
 _atom_site_fract_x
 _atom_site_fract_y
 _atom_site_fract_z
 _atom_site_occupancy
  Ce  Ce0  1  0.50000000  0.58757700  0.58757700  1.0
  Ce  Ce1  1  0.50000000  0.41242300  1.00000000  1.0
  Ce  Ce2  1  0.50000000  1.00000000  0.41242300  1.0
  In  In3  1  0.00000000  1.00000000  0.74833100  1.0
  In  In4  1  1.00000000  0.25166900  0.25166900  1.0
  In  In5  1  0.00000000  0.74833100  1.00000000  1.0
  Pt  Pt6  1  0.50000000  0.00000000  0.00000000  1.0
  Pt  Pt7  1  0.00000000  0.33333333  0.66666667  1.0
  Pt  Pt8  1  0.00000000  0.66666667  0.33333333  1.0
