# generated using pymatgen
data_CeMg2
_symmetry_space_group_name_H-M   'P 1'
_cell_length_a   3.14469400
_cell_length_b   5.65591000
_cell_length_c   8.62328353
_cell_angle_alpha   90.00000000
_cell_angle_beta   100.50593578
_cell_angle_gamma   90.00000000
_symmetry_Int_Tables_number   1
_chemical_formula_structural   CeMg2
_chemical_formula_sum   'Ce2 Mg4'
_cell_volume   150.80346815
_cell_formula_units_Z   2
loop_
 _symmetry_equiv_pos_site_id
 _symmetry_equiv_pos_as_xyz
  1  'x, y, z'
loop_
 _atom_site_type_symbol
 _atom_site_label
 _atom_site_symmetry_multiplicity
 _atom_site_fract_x
 _atom_site_fract_y
 _atom_site_fract_z
 _atom_site_occupancy
  Ce  Ce0  1  0.12353400  0.50000000  0.24706800  1.0
  Ce  Ce1  1  0.76589100  0.50000000  0.53178200  1.0
  Mg  Mg2  1  0.99846900  0.00000000  0.99693800  1.0
  Mg  Mg3  1  0.33327000  0.00000000  0.66660333  1.0
  Mg  Mg4  1  0.66759600  0.00000000  0.33519200  1.0
  Mg  Mg5  1  0.44457300  0.50000000  0.88914600  1.0
