# generated using pymatgen
data_CeSi2Ag
_symmetry_space_group_name_H-M   'P 1'
_cell_length_a   4.19245800
_cell_length_b   4.21654200
_cell_length_c   9.09650077
_cell_angle_alpha   90.00000000
_cell_angle_beta   103.32318076
_cell_angle_gamma   90.00000000
_symmetry_Int_Tables_number   1
_chemical_formula_structural   CeSi2Ag
_chemical_formula_sum   'Ce2 Si4 Ag2'
_cell_volume   156.47703583
_cell_formula_units_Z   2
loop_
 _symmetry_equiv_pos_site_id
 _symmetry_equiv_pos_as_xyz
  1  'x, y, z'
loop_
 _atom_site_type_symbol
 _atom_site_label
 _atom_site_symmetry_multiplicity
 _atom_site_fract_x
 _atom_site_fract_y
 _atom_site_fract_z
 _atom_site_occupancy
  Ce  Ce0  1  0.59501900  0.25000000  0.19003800  1.0
  Ce  Ce1  1  0.40498100  0.75000000  0.80996200  1.0
  Si  Si2  1  0.96862400  0.25000000  0.93724800  1.0
  Si  Si3  1  0.03137600  0.75000000  0.06275200  1.0
  Si  Si4  1  0.83782300  0.25000000  0.67564600  1.0
  Si  Si5  1  0.16217700  0.75000000  0.32435400  1.0
  Ag  Ag6  1  0.25165100  0.25000000  0.50330200  1.0
  Ag  Ag7  1  0.74834900  0.75000000  0.49669800  1.0
