# generated using pymatgen
data_CeSi2Ni
_symmetry_space_group_name_H-M   'P 1'
_cell_length_a   4.05536600
_cell_length_b   4.10339800
_cell_length_c   8.39465356
_cell_angle_alpha   104.14669984
_cell_angle_beta   90.00000000
_cell_angle_gamma   90.00000000
_symmetry_Int_Tables_number   1
_chemical_formula_structural   CeSi2Ni
_chemical_formula_sum   'Ce2 Si4 Ni2'
_cell_volume   135.45712003
_cell_formula_units_Z   2
loop_
 _symmetry_equiv_pos_site_id
 _symmetry_equiv_pos_as_xyz
  1  'x, y, z'
loop_
 _atom_site_type_symbol
 _atom_site_label
 _atom_site_symmetry_multiplicity
 _atom_site_fract_x
 _atom_site_fract_y
 _atom_site_fract_z
 _atom_site_occupancy
  Ce  Ce0  1  0.75000000  0.89396300  0.78792600  1.0
  Ce  Ce1  1  0.25000000  0.10603700  0.21207400  1.0
  Si  Si2  1  0.75000000  0.24929700  0.49859400  1.0
  Si  Si3  1  0.25000000  0.75070300  0.50140600  1.0
  Si  Si4  1  0.25000000  0.46033600  0.92067200  1.0
  Si  Si5  1  0.75000000  0.53966400  0.07932800  1.0
  Ni  Ni6  1  0.25000000  0.31940200  0.63880400  1.0
  Ni  Ni7  1  0.75000000  0.68059800  0.36119600  1.0
