# generated using pymatgen
data_CeUZn17
_symmetry_space_group_name_H-M   'P 1'
_cell_length_a   6.82651060
_cell_length_b   6.82651060
_cell_length_c   6.82651003
_cell_angle_alpha   82.30302489
_cell_angle_beta   82.30302489
_cell_angle_gamma   82.30301972
_symmetry_Int_Tables_number   1
_chemical_formula_structural   CeUZn17
_chemical_formula_sum   'Ce1 U1 Zn17'
_cell_volume   310.23035990
_cell_formula_units_Z   1
loop_
 _symmetry_equiv_pos_site_id
 _symmetry_equiv_pos_as_xyz
  1  'x, y, z'
loop_
 _atom_site_type_symbol
 _atom_site_label
 _atom_site_symmetry_multiplicity
 _atom_site_fract_x
 _atom_site_fract_y
 _atom_site_fract_z
 _atom_site_occupancy
  Ce  Ce0  1  0.33561800  0.33561800  0.33561800  1.0
  U  U1  1  0.66508800  0.66508800  0.66508800  1.0
  Zn  Zn2  1  0.70319500  0.29776200  0.99902100  1.0
  Zn  Zn3  1  0.29776200  0.99902100  0.70319500  1.0
  Zn  Zn4  1  0.99902100  0.70319500  0.29776200  1.0
  Zn  Zn5  1  0.70319500  0.99902100  0.29776200  1.0
  Zn  Zn6  1  0.99902100  0.29776200  0.70319500  1.0
  Zn  Zn7  1  0.29776200  0.70319500  0.99902100  1.0
  Zn  Zn8  1  0.15927900  0.64883400  0.64883400  1.0
  Zn  Zn9  1  0.64883400  0.64883400  0.15927900  1.0
  Zn  Zn10  1  0.64883400  0.15927900  0.64883400  1.0
  Zn  Zn11  1  0.83871200  0.35329400  0.35329400  1.0
  Zn  Zn12  1  0.35329400  0.35329400  0.83871200  1.0
  Zn  Zn13  1  0.35329400  0.83871200  0.35329400  1.0
  Zn  Zn14  1  0.99908600  0.99908600  0.50078900  1.0
  Zn  Zn15  1  0.99908600  0.50078900  0.99908600  1.0
  Zn  Zn16  1  0.50078900  0.99908600  0.99908600  1.0
  Zn  Zn17  1  0.10043300  0.10043300  0.10043300  1.0
  Zn  Zn18  1  0.89769700  0.89769700  0.89769700  1.0
