# generated using pymatgen
data_Co(NiS2)2
_symmetry_space_group_name_H-M   'P 1'
_cell_length_a   6.60806400
_cell_length_b   6.62617161
_cell_length_c   6.62617161
_cell_angle_alpha   60.18596383
_cell_angle_beta   60.09035724
_cell_angle_gamma   60.09035724
_symmetry_Int_Tables_number   1
_chemical_formula_structural   Co(NiS2)2
_chemical_formula_sum   'Co2 Ni4 S8'
_cell_volume   205.72388144
_cell_formula_units_Z   2
loop_
 _symmetry_equiv_pos_site_id
 _symmetry_equiv_pos_as_xyz
  1  'x, y, z'
loop_
 _atom_site_type_symbol
 _atom_site_label
 _atom_site_symmetry_multiplicity
 _atom_site_fract_x
 _atom_site_fract_y
 _atom_site_fract_z
 _atom_site_occupancy
  Co  Co0  1  0.50000000  1.00000000  0.50000000  1.0
  Co  Co1  1  1.00000000  0.00000000  0.50000000  1.0
  Ni  Ni2  1  0.37438200  0.37561800  0.87561800  1.0
  Ni  Ni3  1  0.00000000  0.00000000  0.00000000  1.0
  Ni  Ni4  1  1.00000000  0.50000000  0.50000000  1.0
  Ni  Ni5  1  0.62561800  0.62438200  0.12438200  1.0
  S  S6  1  0.24510400  0.23931100  0.73931200  1.0
  S  S7  1  0.77627200  0.23931200  0.73931200  1.0
  S  S8  1  0.24242300  0.77905200  0.73610200  1.0
  S  S9  1  0.24242300  0.23610200  0.27905200  1.0
  S  S10  1  0.75757700  0.76389800  0.72094800  1.0
  S  S11  1  0.75757700  0.22094800  0.26389800  1.0
  S  S12  1  0.22372800  0.76068800  0.26068800  1.0
  S  S13  1  0.75489600  0.76068900  0.26068800  1.0
