# generated using pymatgen
data_Co(PdSe)2
_symmetry_space_group_name_H-M   'P 1'
_cell_length_a   5.04260400
_cell_length_b   6.04421400
_cell_length_c   6.61953783
_cell_angle_alpha   117.16429009
_cell_angle_beta   112.38869336
_cell_angle_gamma   89.99999999
_symmetry_Int_Tables_number   1
_chemical_formula_structural   Co(PdSe)2
_chemical_formula_sum   'Co2 Pd4 Se4'
_cell_volume   162.21988290
_cell_formula_units_Z   2
loop_
 _symmetry_equiv_pos_site_id
 _symmetry_equiv_pos_as_xyz
  1  'x, y, z'
loop_
 _atom_site_type_symbol
 _atom_site_label
 _atom_site_symmetry_multiplicity
 _atom_site_fract_x
 _atom_site_fract_y
 _atom_site_fract_z
 _atom_site_occupancy
  Co  Co0  1  0.75000000  1.00000000  1.00000000  1.0
  Co  Co1  1  0.25000000  0.00000000  1.00000000  1.0
  Pd  Pd2  1  0.11280400  0.73704300  0.22560800  1.0
  Pd  Pd3  1  0.88719600  0.26295700  0.77439200  1.0
  Pd  Pd4  1  0.38719600  0.51143500  0.77439200  1.0
  Pd  Pd5  1  0.61280400  0.48856500  0.22560800  1.0
  Se  Se6  1  0.35872200  0.06862600  0.71744400  1.0
  Se  Se7  1  0.64127800  0.93137400  0.28255600  1.0
  Se  Se8  1  0.85872200  0.64881800  0.71744400  1.0
  Se  Se9  1  0.14127800  0.35118200  0.28255600  1.0
