# generated using pymatgen
data_CoF3
_symmetry_space_group_name_H-M   'P 1'
_cell_length_a   3.83462470
_cell_length_b   3.83474368
_cell_length_c   3.85409358
_cell_angle_alpha   89.68512935
_cell_angle_beta   89.68392366
_cell_angle_gamma   90.08697259
_symmetry_Int_Tables_number   1
_chemical_formula_structural   CoF3
_chemical_formula_sum   'Co1 F3'
_cell_volume   56.67190017
_cell_formula_units_Z   1
loop_
 _symmetry_equiv_pos_site_id
 _symmetry_equiv_pos_as_xyz
  1  'x, y, z'
loop_
 _atom_site_type_symbol
 _atom_site_label
 _atom_site_symmetry_multiplicity
 _atom_site_fract_x
 _atom_site_fract_y
 _atom_site_fract_z
 _atom_site_occupancy
  Co  Co0  1  0.00000525  0.00000275  0.00000200  1.0
  F  F4  1  0.00000575  0.49999775  0.99994800  1.0
  F  F8  1  0.00000050  0.99999675  0.49999650  1.0
  F  F12  1  0.49998825  0.00000350  0.00005250  1.0
