# generated using pymatgen
data_CoPtO2
_symmetry_space_group_name_H-M   'P 1'
_cell_length_a   2.88189990
_cell_length_b   2.88367399
_cell_length_c   6.27784795
_cell_angle_alpha   90.13318093
_cell_angle_beta   102.78425849
_cell_angle_gamma   119.93029904
_symmetry_Int_Tables_number   1
_chemical_formula_structural   CoPtO2
_chemical_formula_sum   'Co1 Pt1 O2'
_cell_volume   43.69895462
_cell_formula_units_Z   1
loop_
 _symmetry_equiv_pos_site_id
 _symmetry_equiv_pos_as_xyz
  1  'x, y, z'
loop_
 _atom_site_type_symbol
 _atom_site_label
 _atom_site_symmetry_multiplicity
 _atom_site_fract_x
 _atom_site_fract_y
 _atom_site_fract_z
 _atom_site_occupancy
  Co  Co0  1  0.99998725  0.49999500  0.49999975  1.0
  O  O8  1  0.78267500  0.89069450  0.66975200  1.0
  O  O12  1  0.21732600  0.10930675  0.33024900  1.0
  Pt  Pt4  1  0.00001175  0.00000375  0.99999925  1.0
