# generated using pymatgen
data_Cr2CoSeS3
_symmetry_space_group_name_H-M   'P 1'
_cell_length_a   6.98677440
_cell_length_b   6.98677369
_cell_length_c   6.98677440
_cell_angle_alpha   90.17795886
_cell_angle_beta   119.87834826
_cell_angle_gamma   119.91627600
_symmetry_Int_Tables_number   1
_chemical_formula_structural   Cr2CoSeS3
_chemical_formula_sum   'Cr4 Co2 Se2 S6'
_cell_volume   241.53848471
_cell_formula_units_Z   2
loop_
 _symmetry_equiv_pos_site_id
 _symmetry_equiv_pos_as_xyz
  1  'x, y, z'
loop_
 _atom_site_type_symbol
 _atom_site_label
 _atom_site_symmetry_multiplicity
 _atom_site_fract_x
 _atom_site_fract_y
 _atom_site_fract_z
 _atom_site_occupancy
  Cr  Cr0  1  0.49965100  0.00706000  0.00671200  1.0
  Cr  Cr1  1  0.00034800  0.00706000  0.50740900  1.0
  Cr  Cr2  1  0.48127000  0.48064100  0.99937200  1.0
  Cr  Cr3  1  0.01873100  0.01810200  0.99937200  1.0
  Co  Co4  1  0.25000000  0.60573900  0.35573800  1.0
  Co  Co5  1  0.75000000  0.38320800  0.63320800  1.0
  Se  Se6  1  0.99248400  0.75118100  0.24366500  1.0
  Se  Se7  1  0.50751500  0.75118100  0.75869600  1.0
  S  S8  1  0.98400000  0.22598200  0.24198200  1.0
  S  S9  1  0.51600000  0.75798200  0.24198200  1.0
  S  S10  1  0.00213800  0.24834300  0.75048200  1.0
  S  S11  1  0.49786100  0.24834300  0.24620500  1.0
  S  S12  1  0.01553600  0.77312400  0.75758900  1.0
  S  S13  1  0.48446500  0.24205300  0.75758900  1.0
