# generated using pymatgen
data_Cr2CuSe4
_symmetry_space_group_name_H-M   'P 1'
_cell_length_a   7.36757041
_cell_length_b   7.36757041
_cell_length_c   7.36757041
_cell_angle_alpha   60.00000000
_cell_angle_beta   60.00000000
_cell_angle_gamma   60.00000000
_symmetry_Int_Tables_number   1
_chemical_formula_structural   Cr2CuSe4
_chemical_formula_sum   'Cr4 Cu2 Se8'
_cell_volume   282.78598844
_cell_formula_units_Z   2
loop_
 _symmetry_equiv_pos_site_id
 _symmetry_equiv_pos_as_xyz
  1  'x, y, z'
loop_
 _atom_site_type_symbol
 _atom_site_label
 _atom_site_symmetry_multiplicity
 _atom_site_fract_x
 _atom_site_fract_y
 _atom_site_fract_z
 _atom_site_occupancy
  Cr  Cr0  1  0.37500000  0.37500000  0.87500000  1.0
  Cr  Cr1  1  0.37500000  0.37500000  0.37500000  1.0
  Cr  Cr2  1  0.37500000  0.87500000  0.37500000  1.0
  Cr  Cr3  1  0.87500000  0.37500000  0.37500000  1.0
  Cu  Cu4  1  0.75000000  0.75000000  0.75000000  1.0
  Cu  Cu5  1  0.00000000  0.00000000  0.00000000  1.0
  Se  Se6  1  0.61742800  0.61742700  0.14771800  1.0
  Se  Se7  1  0.61742800  0.61742700  0.61742700  1.0
  Se  Se8  1  0.61742800  0.14771800  0.61742700  1.0
  Se  Se9  1  0.14771900  0.61742700  0.61742700  1.0
  Se  Se10  1  0.13257200  0.13257300  0.60228200  1.0
  Se  Se11  1  0.13257200  0.13257300  0.13257300  1.0
  Se  Se12  1  0.13257200  0.60228200  0.13257300  1.0
  Se  Se13  1  0.60228100  0.13257300  0.13257300  1.0
