# generated using pymatgen
data_Cr2HgS4
_symmetry_space_group_name_H-M   'P 1'
_cell_length_a   7.31576070
_cell_length_b   7.31576070
_cell_length_c   7.31576070
_cell_angle_alpha   60.00000000
_cell_angle_beta   60.00000000
_cell_angle_gamma   60.00000000
_symmetry_Int_Tables_number   1
_chemical_formula_structural   Cr2HgS4
_chemical_formula_sum   'Cr4 Hg2 S8'
_cell_volume   276.86207896
_cell_formula_units_Z   2
loop_
 _symmetry_equiv_pos_site_id
 _symmetry_equiv_pos_as_xyz
  1  'x, y, z'
loop_
 _atom_site_type_symbol
 _atom_site_label
 _atom_site_symmetry_multiplicity
 _atom_site_fract_x
 _atom_site_fract_y
 _atom_site_fract_z
 _atom_site_occupancy
  Cr  Cr0  1  0.87500000  0.37500000  0.37500000  1.0
  Cr  Cr1  1  0.37500000  0.37500000  0.87500000  1.0
  Cr  Cr2  1  0.37500000  0.87500000  0.37500000  1.0
  Cr  Cr3  1  0.37500000  0.37500000  0.37500000  1.0
  Hg  Hg4  1  0.00000000  0.00000000  0.00000000  1.0
  Hg  Hg5  1  0.75000000  0.75000000  0.75000000  1.0
  S  S6  1  0.60793700  0.60793700  0.60793700  1.0
  S  S7  1  0.14206300  0.57381100  0.14206300  1.0
  S  S8  1  0.57381100  0.14206300  0.14206300  1.0
  S  S9  1  0.14206300  0.14206300  0.57381100  1.0
  S  S10  1  0.17618900  0.60793700  0.60793700  1.0
  S  S11  1  0.60793700  0.60793700  0.17618900  1.0
  S  S12  1  0.14206300  0.14206300  0.14206300  1.0
  S  S13  1  0.60793700  0.17618900  0.60793700  1.0
