# generated using pymatgen
data_Cr2PO5
_symmetry_space_group_name_H-M   'P 1'
_cell_length_a   5.52918191
_cell_length_b   5.52923070
_cell_length_c   7.14590051
_cell_angle_alpha   110.35085345
_cell_angle_beta   110.34132829
_cell_angle_gamma   94.03627481
_symmetry_Int_Tables_number   1
_chemical_formula_structural   Cr2PO5
_chemical_formula_sum   'Cr4 P2 O10'
_cell_volume   187.45429581
_cell_formula_units_Z   2
loop_
 _symmetry_equiv_pos_site_id
 _symmetry_equiv_pos_as_xyz
  1  'x, y, z'
loop_
 _atom_site_type_symbol
 _atom_site_label
 _atom_site_symmetry_multiplicity
 _atom_site_fract_x
 _atom_site_fract_y
 _atom_site_fract_z
 _atom_site_occupancy
  Cr  Cr0  1  0.50003100  0.50033600  0.00002500  1.0
  Cr  Cr1  1  0.49996500  0.99994700  0.49992400  1.0
  Cr  Cr2  1  0.49999200  0.49976200  0.49983200  1.0
  Cr  Cr3  1  0.99997000  0.50011600  0.00006900  1.0
  P  P4  1  0.89684000  0.10322400  0.25002200  1.0
  P  P5  1  0.10315200  0.89687600  0.75001500  1.0
  O  O6  1  0.63746900  0.36239100  0.74997100  1.0
  O  O7  1  0.36252800  0.63739600  0.24997200  1.0
  O  O8  1  0.82561600  0.79899900  0.11322400  1.0
  O  O9  1  0.20101000  0.17420400  0.38664100  1.0
  O  O10  1  0.79885400  0.82541300  0.61308200  1.0
  O  O11  1  0.17439800  0.20118600  0.88681600  1.0
  O  O12  1  0.83938500  0.27276800  0.11542300  1.0
  O  O13  1  0.72743000  0.16061800  0.38484000  1.0
  O  O14  1  0.27279900  0.83938900  0.61550600  1.0
  O  O15  1  0.16056100  0.72737600  0.88463800  1.0
