# generated using pymatgen
data_Cr4CdCuO8
_symmetry_space_group_name_H-M   'P 1'
_cell_length_a   6.10383483
_cell_length_b   6.10383483
_cell_length_c   6.10383483
_cell_angle_alpha   60.00000000
_cell_angle_beta   60.00000000
_cell_angle_gamma   60.00000000
_symmetry_Int_Tables_number   1
_chemical_formula_structural   Cr4CdCuO8
_chemical_formula_sum   'Cr4 Cd1 Cu1 O8'
_cell_volume   160.80269437
_cell_formula_units_Z   1
loop_
 _symmetry_equiv_pos_site_id
 _symmetry_equiv_pos_as_xyz
  1  'x, y, z'
loop_
 _atom_site_type_symbol
 _atom_site_label
 _atom_site_symmetry_multiplicity
 _atom_site_fract_x
 _atom_site_fract_y
 _atom_site_fract_z
 _atom_site_occupancy
  Cr  Cr0  1  0.37521000  0.37521100  0.87436800  1.0
  Cr  Cr1  1  0.37521000  0.37521100  0.37521100  1.0
  Cr  Cr2  1  0.37521000  0.87436800  0.37521100  1.0
  Cr  Cr3  1  0.87436700  0.37521100  0.37521100  1.0
  Cd  Cd4  1  0.00000000  0.00000000  0.00000000  1.0
  Cu  Cu5  1  0.75000000  0.75000000  0.75000000  1.0
  O  O6  1  0.14342700  0.14342700  0.56971900  1.0
  O  O7  1  0.14342700  0.14342700  0.14342700  1.0
  O  O8  1  0.14342700  0.56971900  0.14342700  1.0
  O  O9  1  0.56971900  0.14342700  0.14342700  1.0
  O  O10  1  0.61196600  0.61196600  0.16410200  1.0
  O  O11  1  0.61196600  0.61196600  0.61196600  1.0
  O  O12  1  0.61196600  0.16410200  0.61196600  1.0
  O  O13  1  0.16410200  0.61196600  0.61196600  1.0
