# generated using pymatgen
data_Cr5InS8
_symmetry_space_group_name_H-M   'P 1'
_cell_length_a   3.48062600
_cell_length_b   8.67377663
_cell_length_c   9.20506309
_cell_angle_alpha   104.78788989
_cell_angle_beta   100.89795587
_cell_angle_gamma   90.00000000
_symmetry_Int_Tables_number   1
_chemical_formula_structural   Cr5InS8
_chemical_formula_sum   'Cr5 In1 S8'
_cell_volume   263.51072209
_cell_formula_units_Z   1
loop_
 _symmetry_equiv_pos_site_id
 _symmetry_equiv_pos_as_xyz
  1  'x, y, z'
loop_
 _atom_site_type_symbol
 _atom_site_label
 _atom_site_symmetry_multiplicity
 _atom_site_fract_x
 _atom_site_fract_y
 _atom_site_fract_z
 _atom_site_occupancy
  Cr  Cr0  1  0.79694900  0.16514700  0.59389800  1.0
  Cr  Cr1  1  0.20394300  0.83415800  0.40788600  1.0
  Cr  Cr2  1  0.49942000  0.50012900  0.99884000  1.0
  Cr  Cr3  1  0.15887000  0.47398800  0.31774000  1.0
  Cr  Cr4  1  0.84245500  0.52747700  0.68491000  1.0
  In  In5  1  0.01845700  0.00799900  0.03691400  1.0
  S  S6  1  0.58537900  0.32741000  0.17075800  1.0
  S  S7  1  0.41536400  0.67358200  0.83072800  1.0
  S  S8  1  0.26311100  0.34532800  0.52622200  1.0
  S  S9  1  0.73791300  0.65641500  0.47582600  1.0
  S  S10  1  0.92359400  0.34955000  0.84718800  1.0
  S  S11  1  0.07617800  0.64954400  0.15235600  1.0
  S  S12  1  0.67182800  0.98929400  0.34365600  1.0
  S  S13  1  0.32764700  0.01047800  0.65529400  1.0
