# generated using pymatgen
data_CrAgSn(SeS)2
_symmetry_space_group_name_H-M   'P 1'
_cell_length_a   7.60105800
_cell_length_b   7.67460988
_cell_length_c   7.67460988
_cell_angle_alpha   60.89849641
_cell_angle_beta   60.31652618
_cell_angle_gamma   60.31652618
_symmetry_Int_Tables_number   1
_chemical_formula_structural   CrAgSn(SeS)2
_chemical_formula_sum   'Cr2 Ag2 Sn2 Se4 S4'
_cell_volume   320.20184461
_cell_formula_units_Z   2
loop_
 _symmetry_equiv_pos_site_id
 _symmetry_equiv_pos_as_xyz
  1  'x, y, z'
loop_
 _atom_site_type_symbol
 _atom_site_label
 _atom_site_symmetry_multiplicity
 _atom_site_fract_x
 _atom_site_fract_y
 _atom_site_fract_z
 _atom_site_occupancy
  Cr  Cr0  1  0.11126500  0.62951200  0.62951200  1.0
  Cr  Cr1  1  0.62971100  0.62951100  0.62951200  1.0
  Ag  Ag2  1  0.25823900  0.24176100  0.24176100  1.0
  Ag  Ag3  1  0.99386600  0.00613400  0.00613400  1.0
  Sn  Sn4  1  0.62976300  0.62761000  0.11286400  1.0
  Sn  Sn5  1  0.62976300  0.11286400  0.62761000  1.0
  Se  Se6  1  0.84770100  0.39457100  0.39457100  1.0
  Se  Se7  1  0.36315700  0.39457100  0.39457100  1.0
  Se  Se8  1  0.37814000  0.40708300  0.83663600  1.0
  Se  Se9  1  0.37814100  0.83663500  0.40708300  1.0
  S  S10  1  0.40774000  0.85437800  0.85437900  1.0
  S  S11  1  0.88350200  0.85437900  0.85437900  1.0
  S  S12  1  0.86950600  0.84202200  0.41896700  1.0
  S  S13  1  0.86950500  0.41896800  0.84202200  1.0
