# generated using pymatgen
data_CrRe13B6
_symmetry_space_group_name_H-M   'P 1'
_cell_length_a   4.92665100
_cell_length_b   7.50588600
_cell_length_c   7.50588604
_cell_angle_alpha   119.99999983
_cell_angle_beta   90.00000000
_cell_angle_gamma   90.00000000
_symmetry_Int_Tables_number   1
_chemical_formula_structural   CrRe13B6
_chemical_formula_sum   'Cr1 Re13 B6'
_cell_volume   240.37337492
_cell_formula_units_Z   1
loop_
 _symmetry_equiv_pos_site_id
 _symmetry_equiv_pos_as_xyz
  1  'x, y, z'
loop_
 _atom_site_type_symbol
 _atom_site_label
 _atom_site_symmetry_multiplicity
 _atom_site_fract_x
 _atom_site_fract_y
 _atom_site_fract_z
 _atom_site_occupancy
  Cr  Cr0  1  0.59146100  0.33333333  0.66666667  1.0
  Re  Re1  1  0.54758700  0.12296100  0.24592200  1.0
  Re  Re2  1  0.54758700  0.75407900  0.87704000  1.0
  Re  Re3  1  0.54758700  0.12296100  0.87704000  1.0
  Re  Re4  1  0.04829500  0.21389000  0.42778000  1.0
  Re  Re5  1  0.04829500  0.57222000  0.78611000  1.0
  Re  Re6  1  0.04829500  0.21389000  0.78611000  1.0
  Re  Re7  1  0.09093700  0.00000000  0.00000000  1.0
  Re  Re8  1  0.74921000  0.54310000  0.08620000  1.0
  Re  Re9  1  0.74921000  0.91380100  0.45690100  1.0
  Re  Re10  1  0.74921000  0.54310000  0.45690100  1.0
  Re  Re11  1  0.24929700  0.78923600  0.57847200  1.0
  Re  Re12  1  0.24929700  0.42152900  0.21076500  1.0
  Re  Re13  1  0.24929700  0.78923600  0.21076500  1.0
  B  B14  1  0.83889400  0.85683700  0.71367400  1.0
  B  B15  1  0.83889400  0.28632600  0.14316300  1.0
  B  B16  1  0.83889400  0.85683700  0.14316300  1.0
  B  B17  1  0.34713900  0.47424200  0.94848400  1.0
  B  B18  1  0.34713900  0.05151600  0.52575800  1.0
  B  B19  1  0.34713900  0.47424200  0.52575800  1.0
