# generated using pymatgen
data_CrSbO4
_symmetry_space_group_name_H-M   'P 1'
_cell_length_a   3.96711227
_cell_length_b   3.96712172
_cell_length_c   5.59523622
_cell_angle_alpha   110.76348127
_cell_angle_beta   110.76347821
_cell_angle_gamma   89.99955774
_symmetry_Int_Tables_number   1
_chemical_formula_structural   CrSbO4
_chemical_formula_sum   'Cr1 Sb1 O4'
_cell_volume   76.19151998
_cell_formula_units_Z   1
loop_
 _symmetry_equiv_pos_site_id
 _symmetry_equiv_pos_as_xyz
  1  'x, y, z'
loop_
 _atom_site_type_symbol
 _atom_site_label
 _atom_site_symmetry_multiplicity
 _atom_site_fract_x
 _atom_site_fract_y
 _atom_site_fract_z
 _atom_site_occupancy
  Cr  Cr0  1  0.75001700  0.25001200  0.50001000  1.0
  Sb  Sb1  1  0.99999700  0.99999800  0.99999900  1.0
  O  O2  1  0.54176300  0.04176400  0.08353100  1.0
  O  O3  1  0.20469200  0.20469300  0.40938900  1.0
  O  O4  1  0.95823000  0.45823100  0.91646500  1.0
  O  O5  1  0.79530100  0.79530200  0.59060700  1.0
