# generated using pymatgen
data_Cs2Hg3I8
_symmetry_space_group_name_H-M   'P 1'
_cell_length_a   7.58676800
_cell_length_b   8.10485478
_cell_length_c   12.02652453
_cell_angle_alpha   84.27774197
_cell_angle_beta   71.61394163
_cell_angle_gamma   71.57226517
_symmetry_Int_Tables_number   1
_chemical_formula_structural   Cs2Hg3I8
_chemical_formula_sum   'Cs2 Hg3 I8'
_cell_volume   665.77313648
_cell_formula_units_Z   1
loop_
 _symmetry_equiv_pos_site_id
 _symmetry_equiv_pos_as_xyz
  1  'x, y, z'
loop_
 _atom_site_type_symbol
 _atom_site_label
 _atom_site_symmetry_multiplicity
 _atom_site_fract_x
 _atom_site_fract_y
 _atom_site_fract_z
 _atom_site_occupancy
  Cs  Cs0  1  0.89705200  0.54724600  0.74140700  1.0
  Cs  Cs1  1  0.63845900  0.54724600  0.25859300  1.0
  Hg  Hg2  1  0.99990900  0.99910400  0.00000000  1.0
  Hg  Hg3  1  0.31353800  0.92001500  0.61243600  1.0
  Hg  Hg4  1  0.92597400  0.92001500  0.38756400  1.0
  I  I5  1  0.66142700  0.26020800  0.00000000  1.0
  I  I6  1  0.08713000  0.64290200  0.00000000  1.0
  I  I7  1  0.90918800  0.05323700  0.61041600  1.0
  I  I8  1  0.51960400  0.05323700  0.38958400  1.0
  I  I9  1  0.45958600  0.56051100  0.61147300  1.0
  I  I10  1  0.07105900  0.56051100  0.38852700  1.0
  I  I11  1  0.11778100  0.10005900  0.19589700  1.0
  I  I12  1  0.31367800  0.10005900  0.80410300  1.0
