# generated using pymatgen
data_Cs2HgI4
_symmetry_space_group_name_H-M   'P 1'
_cell_length_a   8.12100500
_cell_length_b   8.65715700
_cell_length_c   11.30729031
_cell_angle_alpha   90.00000000
_cell_angle_beta   110.38795360
_cell_angle_gamma   90.00000000
_symmetry_Int_Tables_number   1
_chemical_formula_structural   Cs2HgI4
_chemical_formula_sum   'Cs4 Hg2 I8'
_cell_volume   745.15708166
_cell_formula_units_Z   2
loop_
 _symmetry_equiv_pos_site_id
 _symmetry_equiv_pos_as_xyz
  1  'x, y, z'
loop_
 _atom_site_type_symbol
 _atom_site_label
 _atom_site_symmetry_multiplicity
 _atom_site_fract_x
 _atom_site_fract_y
 _atom_site_fract_z
 _atom_site_occupancy
  Cs  Cs0  1  0.30672300  0.25554600  0.09266400  1.0
  Cs  Cs1  1  0.80550500  0.76144600  0.46631200  1.0
  Cs  Cs2  1  0.69327700  0.75554600  0.90733600  1.0
  Cs  Cs3  1  0.19449500  0.26144600  0.53368800  1.0
  Hg  Hg4  1  0.81955900  0.26027400  0.72671800  1.0
  Hg  Hg5  1  0.18044100  0.76027400  0.27328200  1.0
  I  I6  1  0.96057500  0.49433400  0.21017500  1.0
  I  I7  1  0.57489000  0.25625000  0.85400400  1.0
  I  I8  1  0.35680900  0.75138600  0.54419900  1.0
  I  I9  1  0.95764500  0.02276500  0.21660600  1.0
  I  I10  1  0.42511000  0.75625000  0.14599600  1.0
  I  I11  1  0.03942500  0.99433400  0.78982500  1.0
  I  I12  1  0.64319100  0.25138600  0.45580100  1.0
  I  I13  1  0.04235500  0.52276500  0.78339400  1.0
