# generated using pymatgen
data_Cs2LiAlF6
_symmetry_space_group_name_H-M   'P 1'
_cell_length_a   5.10329700
_cell_length_b   6.29789600
_cell_length_c   6.29789606
_cell_angle_alpha   60.00000033
_cell_angle_beta   90.00000000
_cell_angle_gamma   90.00000000
_symmetry_Int_Tables_number   1
_chemical_formula_structural   Cs2LiAlF6
_chemical_formula_sum   'Cs2 Li1 Al1 F6'
_cell_volume   175.29617926
_cell_formula_units_Z   1
loop_
 _symmetry_equiv_pos_site_id
 _symmetry_equiv_pos_as_xyz
  1  'x, y, z'
loop_
 _atom_site_type_symbol
 _atom_site_label
 _atom_site_symmetry_multiplicity
 _atom_site_fract_x
 _atom_site_fract_y
 _atom_site_fract_z
 _atom_site_occupancy
  Cs  Cs0  1  0.77134500  0.33333333  0.33333333  1.0
  Cs  Cs1  1  0.22865500  0.66666667  0.66666667  1.0
  Li  Li2  1  0.00000000  0.00000000  0.00000000  1.0
  Al  Al3  1  0.50000000  0.00000000  0.00000000  1.0
  F  F4  1  0.71812000  0.86584600  0.26830800  1.0
  F  F5  1  0.28188000  0.13415400  0.73169200  1.0
  F  F6  1  0.71812000  0.26830900  0.86584500  1.0
  F  F7  1  0.28188000  0.73169100  0.13415500  1.0
  F  F8  1  0.71812000  0.86584600  0.86584500  1.0
  F  F9  1  0.28188000  0.13415400  0.13415500  1.0
