# generated using pymatgen
data_Cs2MnS2
_symmetry_space_group_name_H-M   'P 1'
_cell_length_a   6.52926200
_cell_length_b   7.45929800
_cell_length_c   8.54310101
_cell_angle_alpha   115.88514357
_cell_angle_beta   112.46608736
_cell_angle_gamma   90.00000000
_symmetry_Int_Tables_number   1
_chemical_formula_structural   Cs2MnS2
_chemical_formula_sum   'Cs4 Mn2 S4'
_cell_volume   338.88991807
_cell_formula_units_Z   2
loop_
 _symmetry_equiv_pos_site_id
 _symmetry_equiv_pos_as_xyz
  1  'x, y, z'
loop_
 _atom_site_type_symbol
 _atom_site_label
 _atom_site_symmetry_multiplicity
 _atom_site_fract_x
 _atom_site_fract_y
 _atom_site_fract_z
 _atom_site_occupancy
  Cs  Cs0  1  0.85129400  0.19067800  0.70258800  1.0
  Cs  Cs1  1  0.14870600  0.80932200  0.29741300  1.0
  Cs  Cs2  1  0.35129300  0.51190900  0.70258700  1.0
  Cs  Cs3  1  0.64870700  0.48809100  0.29741400  1.0
  Mn  Mn4  1  0.75000000  0.00000000  0.00000000  1.0
  Mn  Mn5  1  0.25000000  0.00000000  0.00000000  1.0
  S  S6  1  0.59342200  0.91984600  0.18684400  1.0
  S  S7  1  0.40657800  0.08015400  0.81315600  1.0
  S  S8  1  0.09342200  0.26699800  0.18684400  1.0
  S  S9  1  0.90657800  0.73300200  0.81315600  1.0
