# generated using pymatgen
data_Cs2MnSe2
_symmetry_space_group_name_H-M   'P 1'
_cell_length_a   6.84138600
_cell_length_b   7.63911400
_cell_length_c   8.86743900
_cell_angle_alpha   115.51450525
_cell_angle_beta   112.69085818
_cell_angle_gamma   90.00000001
_symmetry_Int_Tables_number   1
_chemical_formula_structural   Cs2MnSe2
_chemical_formula_sum   'Cs4 Mn2 Se4'
_cell_volume   378.10238201
_cell_formula_units_Z   2
loop_
 _symmetry_equiv_pos_site_id
 _symmetry_equiv_pos_as_xyz
  1  'x, y, z'
loop_
 _atom_site_type_symbol
 _atom_site_label
 _atom_site_symmetry_multiplicity
 _atom_site_fract_x
 _atom_site_fract_y
 _atom_site_fract_z
 _atom_site_occupancy
  Cs  Cs0  1  0.14739800  0.48361000  0.29479600  1.0
  Cs  Cs1  1  0.85260200  0.51639000  0.70520400  1.0
  Cs  Cs2  1  0.35260300  0.18881500  0.70520500  1.0
  Cs  Cs3  1  0.64739700  0.81118500  0.29479500  1.0
  Mn  Mn4  1  0.25000000  0.00000000  1.00000000  1.0
  Mn  Mn5  1  0.75000000  0.00000000  1.00000000  1.0
  Se  Se6  1  0.09614600  0.91921800  0.19229200  1.0
  Se  Se7  1  0.59614600  0.27307400  0.19229200  1.0
  Se  Se8  1  0.90385400  0.08078200  0.80770800  1.0
  Se  Se9  1  0.40385300  0.72692500  0.80770700  1.0
