# generated using pymatgen
data_Cs2PdCl4
_symmetry_space_group_name_H-M   'P 1'
_cell_length_a   4.74196800
_cell_length_b   7.63552097
_cell_length_c   7.63552097
_cell_angle_alpha   89.97265277
_cell_angle_beta   90.00000000
_cell_angle_gamma   90.00000000
_symmetry_Int_Tables_number   1
_chemical_formula_structural   Cs2PdCl4
_chemical_formula_sum   'Cs2 Pd1 Cl4'
_cell_volume   276.46230072
_cell_formula_units_Z   1
loop_
 _symmetry_equiv_pos_site_id
 _symmetry_equiv_pos_as_xyz
  1  'x, y, z'
loop_
 _atom_site_type_symbol
 _atom_site_label
 _atom_site_symmetry_multiplicity
 _atom_site_fract_x
 _atom_site_fract_y
 _atom_site_fract_z
 _atom_site_occupancy
  Cl  Cl6  1  1.00000000  0.21632300  0.78367700  1.0
  Cl  Cl7  1  1.00000000  0.78367700  0.21632300  1.0
  Cl  Cl10  1  0.00000000  0.21628100  0.21628100  1.0
  Cl  Cl11  1  0.00000000  0.78371900  0.78371900  1.0
  Cs  Cs0  1  0.50000000  0.50000000  1.00000000  1.0
  Cs  Cs2  1  0.50000000  0.00000000  0.50000000  1.0
  Pd  Pd4  1  0.00000000  0.00000000  0.00000000  1.0
