# generated using pymatgen
data_Cs2Zr(WO4)3
_symmetry_space_group_name_H-M   'P 1'
_cell_length_a   7.45220000
_cell_length_b   7.45407544
_cell_length_c   7.57659656
_cell_angle_alpha   119.42252104
_cell_angle_beta   90.00000000
_cell_angle_gamma   119.99167749
_symmetry_Int_Tables_number   1
_chemical_formula_structural   Cs2Zr(WO4)3
_chemical_formula_sum   'Cs2 Zr1 W3 O12'
_cell_volume   300.21146713
_cell_formula_units_Z   1
loop_
 _symmetry_equiv_pos_site_id
 _symmetry_equiv_pos_as_xyz
  1  'x, y, z'
loop_
 _atom_site_type_symbol
 _atom_site_label
 _atom_site_symmetry_multiplicity
 _atom_site_fract_x
 _atom_site_fract_y
 _atom_site_fract_z
 _atom_site_occupancy
  Cs  Cs0  1  0.11099600  0.27323500  0.88802200  1.0
  Cs  Cs1  1  0.83776100  0.72676500  0.11197800  1.0
  Zr  Zr2  1  0.49755100  0.00000000  0.00000000  1.0
  W  W3  1  0.49780100  0.50015500  0.49981900  1.0
  W  W4  1  0.99764600  0.49984500  0.50018100  1.0
  W  W5  1  0.49818400  0.00000000  0.50000000  1.0
  O  O6  1  0.80686700  0.61469600  0.55261800  1.0
  O  O7  1  0.43782000  0.87264900  0.20202000  1.0
  O  O8  1  0.43769300  0.26797700  0.20221500  1.0
  O  O9  1  0.80669000  0.24474700  0.55210100  1.0
  O  O10  1  0.82843100  0.26549700  0.20209500  1.0
  O  O11  1  0.43830500  0.24598500  0.55336300  1.0
  O  O12  1  0.19217100  0.38530400  0.44738200  1.0
  O  O13  1  0.56517100  0.12735100  0.79798000  1.0
  O  O14  1  0.56293400  0.73450300  0.79790500  1.0
  O  O15  1  0.19232000  0.75401500  0.44663700  1.0
  O  O16  1  0.16971600  0.73202300  0.79778500  1.0
  O  O17  1  0.56194300  0.75525300  0.44789900  1.0
