# generated using pymatgen
data_Cs3CoCl5
_symmetry_space_group_name_H-M   'P 1'
_cell_length_a   9.47220000
_cell_length_b   9.90680006
_cell_length_c   9.47220000
_cell_angle_alpha   118.55913727
_cell_angle_beta   89.99999999
_cell_angle_gamma   118.55913727
_symmetry_Int_Tables_number   1
_chemical_formula_structural   Cs3CoCl5
_chemical_formula_sum   'Cs6 Co2 Cl10'
_cell_volume   654.93422711
_cell_formula_units_Z   2
loop_
 _symmetry_equiv_pos_site_id
 _symmetry_equiv_pos_as_xyz
  1  'x, y, z'
loop_
 _atom_site_type_symbol
 _atom_site_label
 _atom_site_symmetry_multiplicity
 _atom_site_fract_x
 _atom_site_fract_y
 _atom_site_fract_z
 _atom_site_occupancy
  Cs  Cs0  1  0.25000000  0.50000000  0.25000000  1.0
  Cs  Cs1  1  0.75000000  0.50000000  0.75000000  1.0
  Cs  Cs2  1  0.33134300  1.00000000  0.16865700  1.0
  Cs  Cs3  1  0.66865700  0.00000000  0.83134300  1.0
  Cs  Cs4  1  0.83134300  0.00000000  0.33134300  1.0
  Cs  Cs5  1  0.16865700  0.00000000  0.66865700  1.0
  Co  Co6  1  0.25000000  0.50000000  0.75000000  1.0
  Co  Co7  1  0.75000000  0.50000000  0.25000000  1.0
  Cl  Cl8  1  0.00000000  0.00000000  0.00000000  1.0
  Cl  Cl9  1  0.50000000  0.00000000  0.50000000  1.0
  Cl  Cl10  1  0.02180000  0.31282000  0.79102000  1.0
  Cl  Cl11  1  0.29101900  0.31281800  0.52179900  1.0
  Cl  Cl12  1  0.52180000  0.31281900  0.02180000  1.0
  Cl  Cl13  1  0.79101900  0.31281900  0.29101900  1.0
  Cl  Cl14  1  0.97820000  0.68718000  0.20898000  1.0
  Cl  Cl15  1  0.70898100  0.68718200  0.47820100  1.0
  Cl  Cl16  1  0.47820000  0.68718100  0.97820000  1.0
  Cl  Cl17  1  0.20898100  0.68718100  0.70898100  1.0
