# generated using pymatgen
data_Cs3CdBr5
_symmetry_space_group_name_H-M   'P 1'
_cell_length_a   9.86120000
_cell_length_b   10.71600408
_cell_length_c   9.86120000
_cell_angle_alpha   117.39456331
_cell_angle_beta   90.00000000
_cell_angle_gamma   117.39456331
_symmetry_Int_Tables_number   1
_chemical_formula_structural   Cs3CdBr5
_chemical_formula_sum   'Cs6 Cd2 Br10'
_cell_volume   791.27049263
_cell_formula_units_Z   2
loop_
 _symmetry_equiv_pos_site_id
 _symmetry_equiv_pos_as_xyz
  1  'x, y, z'
loop_
 _atom_site_type_symbol
 _atom_site_label
 _atom_site_symmetry_multiplicity
 _atom_site_fract_x
 _atom_site_fract_y
 _atom_site_fract_z
 _atom_site_occupancy
  Cs  Cs0  1  0.83930700  0.00000000  0.66069300  1.0
  Cs  Cs1  1  0.16069300  1.00000000  0.33930700  1.0
  Cs  Cs2  1  0.33930700  0.00000000  0.83930700  1.0
  Cs  Cs3  1  0.66069300  0.00000000  0.16069300  1.0
  Cs  Cs4  1  0.25000000  0.50000000  0.25000000  1.0
  Cs  Cs5  1  0.75000000  0.50000000  0.75000000  1.0
  Cd  Cd6  1  0.75000000  0.50000000  0.25000000  1.0
  Cd  Cd7  1  0.25000000  0.50000000  0.75000000  1.0
  Br  Br8  1  0.20023600  0.69781600  0.99758000  1.0
  Br  Br9  1  0.49758100  0.69781800  0.70023700  1.0
  Br  Br10  1  0.70023600  0.69781700  0.20023600  1.0
  Br  Br11  1  0.99758100  0.69781700  0.49758100  1.0
  Br  Br12  1  0.79976400  0.30218400  0.00242000  1.0
  Br  Br13  1  0.50241900  0.30218200  0.29976300  1.0
  Br  Br14  1  0.29976400  0.30218300  0.79976400  1.0
  Br  Br15  1  0.00241900  0.30218300  0.50241900  1.0
  Br  Br16  1  0.00000000  0.00000000  0.00000000  1.0
  Br  Br17  1  0.50000000  0.00000000  0.50000000  1.0
