# generated using pymatgen
data_Cs3FeF6
_symmetry_space_group_name_H-M   'P 1'
_cell_length_a   6.72236800
_cell_length_b   6.92799531
_cell_length_c   6.72236800
_cell_angle_alpha   119.02293487
_cell_angle_beta   90.00000000
_cell_angle_gamma   119.02293487
_symmetry_Int_Tables_number   1
_chemical_formula_structural   Cs3FeF6
_chemical_formula_sum   'Cs3 Fe1 F6'
_cell_volume   227.76057486
_cell_formula_units_Z   1
loop_
 _symmetry_equiv_pos_site_id
 _symmetry_equiv_pos_as_xyz
  1  'x, y, z'
loop_
 _atom_site_type_symbol
 _atom_site_label
 _atom_site_symmetry_multiplicity
 _atom_site_fract_x
 _atom_site_fract_y
 _atom_site_fract_z
 _atom_site_occupancy
  Cs  Cs0  1  0.25000000  0.50000000  0.75000000  1.0
  Cs  Cs1  1  0.75000000  0.50000000  0.25000000  1.0
  Cs  Cs2  1  0.50000000  0.00000000  0.50000000  1.0
  Fe  Fe3  1  0.00000000  0.00000000  0.00000000  1.0
  F  F4  1  1.00000000  1.00000000  0.28845400  1.0
  F  F5  1  1.00000000  1.00000000  0.71154600  1.0
  F  F6  1  0.71154600  1.00000000  1.00000000  1.0
  F  F7  1  0.28845400  1.00000000  1.00000000  1.0
  F  F8  1  0.79635200  0.59270400  0.79635200  1.0
  F  F9  1  0.20364800  0.40729600  0.20364800  1.0
