# generated using pymatgen
data_Cs3Li2Cl5
_symmetry_space_group_name_H-M   'P 1'
_cell_length_a   4.24376124
_cell_length_b   5.87544606
_cell_length_c   12.81162888
_cell_angle_alpha   103.25142204
_cell_angle_beta   99.52716527
_cell_angle_gamma   90.02654805
_symmetry_Int_Tables_number   1
_chemical_formula_structural   Cs3Li2Cl5
_chemical_formula_sum   'Cs3 Li2 Cl5'
_cell_volume   306.40514642
_cell_formula_units_Z   1
loop_
 _symmetry_equiv_pos_site_id
 _symmetry_equiv_pos_as_xyz
  1  'x, y, z'
loop_
 _atom_site_type_symbol
 _atom_site_label
 _atom_site_symmetry_multiplicity
 _atom_site_fract_x
 _atom_site_fract_y
 _atom_site_fract_z
 _atom_site_occupancy
  Cs  Cs0  1  0.61631700  0.36653700  0.75083400  1.0
  Cs  Cs1  1  0.86548300  0.61570300  0.24916600  1.0
  Cs  Cs2  1  0.73108700  0.99773600  0.00000000  1.0
  Li  Li3  1  0.46576500  0.16841900  0.43518000  1.0
  Li  Li4  1  0.03058500  0.73323900  0.56482000  1.0
  Cl  Cl5  1  0.00807700  0.31290400  0.52075200  1.0
  Cl  Cl6  1  0.36824200  0.11617800  0.24417700  1.0
  Cl  Cl7  1  0.48732500  0.79215200  0.47924800  1.0
  Cl  Cl8  1  0.12406500  0.87200100  0.75582300  1.0
  Cl  Cl9  1  0.24395100  0.49553600  0.00000000  1.0
