# generated using pymatgen
data_Cs3MnI5
_symmetry_space_group_name_H-M   'P 1'
_cell_length_a   10.46028600
_cell_length_b   11.19188284
_cell_length_c   10.46028600
_cell_angle_alpha   117.86019594
_cell_angle_beta   90.00000000
_cell_angle_gamma   117.86019594
_symmetry_Int_Tables_number   1
_chemical_formula_structural   Cs3MnI5
_chemical_formula_sum   'Cs6 Mn2 I10'
_cell_volume   919.03898362
_cell_formula_units_Z   2
loop_
 _symmetry_equiv_pos_site_id
 _symmetry_equiv_pos_as_xyz
  1  'x, y, z'
loop_
 _atom_site_type_symbol
 _atom_site_label
 _atom_site_symmetry_multiplicity
 _atom_site_fract_x
 _atom_site_fract_y
 _atom_site_fract_z
 _atom_site_occupancy
  Cs  Cs0  1  0.15619200  0.00000000  0.65619200  1.0
  Cs  Cs1  1  0.25000000  0.50000000  0.25000000  1.0
  Cs  Cs2  1  0.65619200  0.00000100  0.84380900  1.0
  Cs  Cs3  1  0.84380800  0.00000000  0.34380800  1.0
  Cs  Cs4  1  0.75000000  0.50000000  0.75000000  1.0
  Cs  Cs5  1  0.34380800  0.99999900  0.15619100  1.0
  Mn  Mn6  1  0.75000000  0.50000000  0.25000000  1.0
  Mn  Mn7  1  0.25000000  0.50000000  0.75000000  1.0
  I  I8  1  0.50883400  0.30894900  0.00883400  1.0
  I  I9  1  0.49116600  0.69105100  0.99116600  1.0
  I  I10  1  0.30011500  0.30894900  0.50883400  1.0
  I  I11  1  0.19988500  0.69105100  0.69988500  1.0
  I  I12  1  0.50000000  0.00000000  0.50000000  1.0
  I  I13  1  0.80011500  0.30894900  0.30011500  1.0
  I  I14  1  0.99116600  0.69105100  0.19988500  1.0
  I  I15  1  0.69988500  0.69105100  0.49116600  1.0
  I  I16  1  0.00883400  0.30894900  0.80011500  1.0
  I  I17  1  0.00000000  0.00000000  0.00000000  1.0
