# generated using pymatgen
data_Cs4Sr(SnSe3)3
_symmetry_space_group_name_H-M   'P 1'
_cell_length_a   9.27851890
_cell_length_b   9.27851890
_cell_length_c   9.27851868
_cell_angle_alpha   107.93999237
_cell_angle_beta   107.93999237
_cell_angle_gamma   107.94000315
_symmetry_Int_Tables_number   1
_chemical_formula_structural   Cs4Sr(SnSe3)3
_chemical_formula_sum   'Cs4 Sr1 Sn3 Se9'
_cell_volume   647.42980020
_cell_formula_units_Z   1
loop_
 _symmetry_equiv_pos_site_id
 _symmetry_equiv_pos_as_xyz
  1  'x, y, z'
loop_
 _atom_site_type_symbol
 _atom_site_label
 _atom_site_symmetry_multiplicity
 _atom_site_fract_x
 _atom_site_fract_y
 _atom_site_fract_z
 _atom_site_occupancy
  Cs  Cs0  1  0.27469500  0.38705300  0.81369300  1.0
  Cs  Cs1  1  0.38705300  0.81369300  0.27469500  1.0
  Cs  Cs2  1  0.81369300  0.27469500  0.38705300  1.0
  Cs  Cs3  1  0.14310900  0.14310900  0.14310900  1.0
  Sr  Sr4  1  0.68412600  0.68412600  0.68412600  1.0
  Sn  Sn5  1  0.21070100  0.79560200  0.66516700  1.0
  Sn  Sn6  1  0.79560200  0.66516700  0.21070100  1.0
  Sn  Sn7  1  0.66516700  0.21070100  0.79560200  1.0
  Se  Se8  1  0.45740300  0.08032000  0.91041000  1.0
  Se  Se9  1  0.08032000  0.91041000  0.45740300  1.0
  Se  Se10  1  0.91041000  0.45740300  0.08032000  1.0
  Se  Se11  1  0.29128200  0.57753500  0.51767600  1.0
  Se  Se12  1  0.57753500  0.51767600  0.29128300  1.0
  Se  Se13  1  0.51767600  0.29128200  0.57753500  1.0
  Se  Se14  1  0.04769700  0.69648500  0.81678400  1.0
  Se  Se15  1  0.69648500  0.81678400  0.04769700  1.0
  Se  Se16  1  0.81678400  0.04769700  0.69648500  1.0
