# generated using pymatgen
data_Cs5U2S4ICl8
_symmetry_space_group_name_H-M   'P 1'
_cell_length_a   7.73125400
_cell_length_b   10.82583000
_cell_length_c   11.01864625
_cell_angle_alpha   119.42280362
_cell_angle_beta   110.53784201
_cell_angle_gamma   90.00000001
_symmetry_Int_Tables_number   1
_chemical_formula_structural   Cs5U2S4ICl8
_chemical_formula_sum   'Cs5 U2 S4 I1 Cl8'
_cell_volume   735.24034248
_cell_formula_units_Z   1
loop_
 _symmetry_equiv_pos_site_id
 _symmetry_equiv_pos_as_xyz
  1  'x, y, z'
loop_
 _atom_site_type_symbol
 _atom_site_label
 _atom_site_symmetry_multiplicity
 _atom_site_fract_x
 _atom_site_fract_y
 _atom_site_fract_z
 _atom_site_occupancy
  Cs  Cs0  1  0.16362600  0.92472200  0.32725200  1.0
  Cs  Cs1  1  0.83637400  0.07527800  0.67274800  1.0
  Cs  Cs2  1  0.83637500  0.59747100  0.67274900  1.0
  Cs  Cs3  1  0.16362500  0.40252900  0.32725100  1.0
  Cs  Cs4  1  0.50000000  1.00000000  0.00000000  1.0
  U  U5  1  0.39302000  0.39302000  0.78604000  1.0
  U  U6  1  0.60698000  0.60698000  0.21396000  1.0
  S  S7  1  0.26667500  0.59567000  1.00000000  1.0
  S  S8  1  0.26667500  0.40433000  1.00000000  1.0
  S  S9  1  0.73332500  0.59567000  0.00000000  1.0
  S  S10  1  0.73332500  0.40433000  0.00000000  1.0
  I  I11  1  0.00000000  0.00000000  0.00000000  1.0
  Cl  Cl12  1  0.52358800  0.28288900  0.56577900  1.0
  Cl  Cl13  1  0.95781000  0.71711100  0.43422200  1.0
  Cl  Cl14  1  0.47641200  0.71711100  0.43422100  1.0
  Cl  Cl15  1  0.04219000  0.28288900  0.56577800  1.0
  Cl  Cl16  1  0.36320600  0.11147900  0.72641200  1.0
  Cl  Cl17  1  0.63679400  0.88852100  0.27358800  1.0
  Cl  Cl18  1  0.63679300  0.38506600  0.27358700  1.0
  Cl  Cl19  1  0.36320700  0.61493400  0.72641300  1.0
