# generated using pymatgen
data_CsAu2F7
_symmetry_space_group_name_H-M   'P 1'
_cell_length_a   7.62318999
_cell_length_b   8.04181913
_cell_length_c   8.04181913
_cell_angle_alpha   87.14982184
_cell_angle_beta   66.56434294
_cell_angle_gamma   66.56434294
_symmetry_Int_Tables_number   1
_chemical_formula_structural   CsAu2F7
_chemical_formula_sum   'Cs2 Au4 F14'
_cell_volume   411.55684682
_cell_formula_units_Z   2
loop_
 _symmetry_equiv_pos_site_id
 _symmetry_equiv_pos_as_xyz
  1  'x, y, z'
loop_
 _atom_site_type_symbol
 _atom_site_label
 _atom_site_symmetry_multiplicity
 _atom_site_fract_x
 _atom_site_fract_y
 _atom_site_fract_z
 _atom_site_occupancy
  Cs  Cs0  1  0.25000000  0.30856600  0.69143400  1.0
  Cs  Cs1  1  0.75000000  0.69143400  0.30856600  1.0
  Au  Au2  1  0.14363300  0.08680800  0.28468100  1.0
  Au  Au3  1  0.35636700  0.71531900  0.91319200  1.0
  Au  Au4  1  0.85636700  0.91319200  0.71531900  1.0
  Au  Au5  1  0.64363300  0.28468100  0.08680800  1.0
  F  F6  1  0.44842900  0.90844700  0.81449900  1.0
  F  F7  1  0.96140100  0.66776900  0.59754900  1.0
  F  F8  1  0.94842900  0.81449800  0.90844700  1.0
  F  F9  1  0.26635300  0.52018200  0.01320900  1.0
  F  F10  1  0.05157100  0.18550100  0.09155300  1.0
  F  F11  1  0.73364700  0.47981800  0.98679100  1.0
  F  F12  1  0.25000000  0.82248100  0.17751900  1.0
  F  F13  1  0.23364700  0.98679100  0.47981800  1.0
  F  F14  1  0.76635300  0.01320900  0.52018200  1.0
  F  F15  1  0.03859900  0.33223100  0.40245100  1.0
  F  F16  1  0.55157100  0.09155300  0.18550200  1.0
  F  F17  1  0.53859900  0.40245100  0.33223100  1.0
  F  F18  1  0.75000000  0.17751900  0.82248100  1.0
  F  F19  1  0.46140100  0.59754900  0.66776900  1.0
