# generated using pymatgen
data_CsCNO
_symmetry_space_group_name_H-M   'P 1'
_cell_length_a   6.21725769
_cell_length_b   6.21725769
_cell_length_c   6.21725769
_cell_angle_alpha   81.19516922
_cell_angle_beta   64.84804728
_cell_angle_gamma   114.95526262
_symmetry_Int_Tables_number   1
_chemical_formula_structural   CsCNO
_chemical_formula_sum   'Cs2 C2 N2 O2'
_cell_volume   180.32641846
_cell_formula_units_Z   2
loop_
 _symmetry_equiv_pos_site_id
 _symmetry_equiv_pos_as_xyz
  1  'x, y, z'
loop_
 _atom_site_type_symbol
 _atom_site_label
 _atom_site_symmetry_multiplicity
 _atom_site_fract_x
 _atom_site_fract_y
 _atom_site_fract_z
 _atom_site_occupancy
  Cs  Cs0  1  0.24918800  0.24918800  0.00000000  1.0
  Cs  Cs1  1  0.24918800  0.74918800  0.50000000  1.0
  C  C2  1  0.74940500  0.50105200  0.25164700  1.0
  C  C3  1  0.75269900  0.00105200  0.74835300  1.0
  N  N4  1  0.75104500  0.62882000  0.37777500  1.0
  N  N5  1  0.00659400  0.12881900  0.62222600  1.0
  O  O6  1  0.75047300  0.37094000  0.12046700  1.0
  O  O7  1  0.49140700  0.87094000  0.87953300  1.0
