# generated using pymatgen
data_CsCr5Se8
_symmetry_space_group_name_H-M   'P 1'
_cell_length_a   3.71697800
_cell_length_b   9.22482694
_cell_length_c   9.72827381
_cell_angle_alpha   104.30382030
_cell_angle_beta   101.01348106
_cell_angle_gamma   90.00000000
_symmetry_Int_Tables_number   1
_chemical_formula_structural   CsCr5Se8
_chemical_formula_sum   'Cs1 Cr5 Se8'
_cell_volume   316.88288180
_cell_formula_units_Z   1
loop_
 _symmetry_equiv_pos_site_id
 _symmetry_equiv_pos_as_xyz
  1  'x, y, z'
loop_
 _atom_site_type_symbol
 _atom_site_label
 _atom_site_symmetry_multiplicity
 _atom_site_fract_x
 _atom_site_fract_y
 _atom_site_fract_z
 _atom_site_occupancy
  Cs  Cs0  1  0.50000000  0.50000000  0.00000000  1.0
  Cr  Cr1  1  0.00000000  0.00000000  0.00000000  1.0
  Cr  Cr2  1  0.34025400  0.01646600  0.68050800  1.0
  Cr  Cr3  1  0.65974600  0.98353400  0.31949200  1.0
  Cr  Cr4  1  0.70448900  0.33415300  0.40897800  1.0
  Cr  Cr5  1  0.29551100  0.66584700  0.59102200  1.0
  Se  Se6  1  0.42500900  0.84681600  0.85001800  1.0
  Se  Se7  1  0.57499100  0.15318400  0.14998200  1.0
  Se  Se8  1  0.08904800  0.83721900  0.17809600  1.0
  Se  Se9  1  0.91095200  0.16278100  0.82190400  1.0
  Se  Se10  1  0.17264500  0.48827200  0.34529000  1.0
  Se  Se11  1  0.82735500  0.51172800  0.65471000  1.0
  Se  Se12  1  0.76078800  0.84197800  0.52157600  1.0
  Se  Se13  1  0.23921200  0.15802200  0.47842400  1.0
