# generated using pymatgen
data_CsCuO2
_symmetry_space_group_name_H-M   'P 1'
_cell_length_a   5.37531200
_cell_length_b   5.51505200
_cell_length_c   6.65662230
_cell_angle_alpha   90.00000000
_cell_angle_beta   113.81324041
_cell_angle_gamma   90.00000000
_symmetry_Int_Tables_number   1
_chemical_formula_structural   CsCuO2
_chemical_formula_sum   'Cs2 Cu2 O4'
_cell_volume   180.53644110
_cell_formula_units_Z   2
loop_
 _symmetry_equiv_pos_site_id
 _symmetry_equiv_pos_as_xyz
  1  'x, y, z'
loop_
 _atom_site_type_symbol
 _atom_site_label
 _atom_site_symmetry_multiplicity
 _atom_site_fract_x
 _atom_site_fract_y
 _atom_site_fract_z
 _atom_site_occupancy
  Cs  Cs0  1  0.31702300  0.75000000  0.63404600  1.0
  Cs  Cs1  1  0.68297700  0.25000000  0.36595400  1.0
  Cu  Cu2  1  0.00188600  0.75000000  0.00377200  1.0
  Cu  Cu3  1  0.99811400  0.25000000  0.99622800  1.0
  O  O4  1  0.10078100  0.00329300  0.20156200  1.0
  O  O5  1  0.89921900  0.99670700  0.79843800  1.0
  O  O6  1  0.89921900  0.50329300  0.79843800  1.0
  O  O7  1  0.10078100  0.49670700  0.20156200  1.0
