# generated using pymatgen
data_CsFeS2
_symmetry_space_group_name_H-M   'P 1'
_cell_length_a   5.42348800
_cell_length_b   7.10822800
_cell_length_c   7.48089601
_cell_angle_alpha   118.36534165
_cell_angle_beta   111.25314517
_cell_angle_gamma   90.00000001
_symmetry_Int_Tables_number   1
_chemical_formula_structural   CsFeS2
_chemical_formula_sum   'Cs2 Fe2 S4'
_cell_volume   231.23932898
_cell_formula_units_Z   2
loop_
 _symmetry_equiv_pos_site_id
 _symmetry_equiv_pos_as_xyz
  1  'x, y, z'
loop_
 _atom_site_type_symbol
 _atom_site_label
 _atom_site_symmetry_multiplicity
 _atom_site_fract_x
 _atom_site_fract_y
 _atom_site_fract_z
 _atom_site_occupancy
  Cs  Cs0  1  0.17222300  0.67222300  0.34444600  1.0
  Cs  Cs1  1  0.82777700  0.32777700  0.65555400  1.0
  Fe  Fe2  1  0.74664800  1.00000000  1.00000000  1.0
  Fe  Fe3  1  0.25335200  1.00000000  1.00000000  1.0
  S  S4  1  0.50000000  0.75712800  1.00000000  1.0
  S  S5  1  0.50000000  0.24287200  0.00000000  1.0
  S  S6  1  0.85806300  0.85806300  0.71612600  1.0
  S  S7  1  0.14193700  0.14193700  0.28387400  1.0
