# generated using pymatgen
data_CsLaS2
_symmetry_space_group_name_H-M   'P 1'
_cell_length_a   4.34319722
_cell_length_b   4.34319722
_cell_length_c   8.44468996
_cell_angle_alpha   75.09864999
_cell_angle_beta   75.09864999
_cell_angle_gamma   60.00001182
_symmetry_Int_Tables_number   1
_chemical_formula_structural   CsLaS2
_chemical_formula_sum   'Cs1 La1 S2'
_cell_volume   131.73159794
_cell_formula_units_Z   1
loop_
 _symmetry_equiv_pos_site_id
 _symmetry_equiv_pos_as_xyz
  1  'x, y, z'
loop_
 _atom_site_type_symbol
 _atom_site_label
 _atom_site_symmetry_multiplicity
 _atom_site_fract_x
 _atom_site_fract_y
 _atom_site_fract_z
 _atom_site_occupancy
  Cs  Cs0  1  0.00000000  0.00000000  0.00000000  1.0
  La  La1  1  0.50000000  0.50000000  0.50000000  1.0
  S  S2  1  0.22946700  0.22946700  0.31159900  1.0
  S  S3  1  0.77053300  0.77053300  0.68840100  1.0
