# generated using pymatgen
data_CsLaHgSe3
_symmetry_space_group_name_H-M   'P 1'
_cell_length_a   4.48917200
_cell_length_b   8.46323972
_cell_length_c   11.57093900
_cell_angle_alpha   90.00000000
_cell_angle_beta   90.00000000
_cell_angle_gamma   105.37978384
_symmetry_Int_Tables_number   1
_chemical_formula_structural   CsLaHgSe3
_chemical_formula_sum   'Cs2 La2 Hg2 Se6'
_cell_volume   423.87097988
_cell_formula_units_Z   2
loop_
 _symmetry_equiv_pos_site_id
 _symmetry_equiv_pos_as_xyz
  1  'x, y, z'
loop_
 _atom_site_type_symbol
 _atom_site_label
 _atom_site_symmetry_multiplicity
 _atom_site_fract_x
 _atom_site_fract_y
 _atom_site_fract_z
 _atom_site_occupancy
  Cs  Cs0  1  0.74455900  0.48911800  0.25000000  1.0
  Cs  Cs1  1  0.25544100  0.51088200  0.75000000  1.0
  La  La2  1  0.00000000  0.00000000  0.50000000  1.0
  La  La3  1  0.00000000  0.00000000  0.00000000  1.0
  Hg  Hg4  1  0.54082700  0.08165400  0.75000000  1.0
  Hg  Hg5  1  0.45917300  0.91834600  0.25000000  1.0
  Se  Se6  1  0.93745200  0.87490400  0.75000000  1.0
  Se  Se7  1  0.06254800  0.12509600  0.25000000  1.0
  Se  Se8  1  0.37887700  0.75775400  0.44848900  1.0
  Se  Se9  1  0.37887700  0.75775400  0.05151100  1.0
  Se  Se10  1  0.62112300  0.24224600  0.94848900  1.0
  Se  Se11  1  0.62112300  0.24224600  0.55151100  1.0
