# generated using pymatgen
data_CsPb2I5
_symmetry_space_group_name_H-M   'P 1'
_cell_length_a   9.19881600
_cell_length_b   9.19881600
_cell_length_c   10.63720587
_cell_angle_alpha   115.61925111
_cell_angle_beta   115.61925111
_cell_angle_gamma   90.00000000
_symmetry_Int_Tables_number   1
_chemical_formula_structural   CsPb2I5
_chemical_formula_sum   'Cs2 Pb4 I10'
_cell_volume   712.20715163
_cell_formula_units_Z   2
loop_
 _symmetry_equiv_pos_site_id
 _symmetry_equiv_pos_as_xyz
  1  'x, y, z'
loop_
 _atom_site_type_symbol
 _atom_site_label
 _atom_site_symmetry_multiplicity
 _atom_site_fract_x
 _atom_site_fract_y
 _atom_site_fract_z
 _atom_site_occupancy
  Cs  Cs0  1  0.25000000  0.25000000  0.50000000  1.0
  Cs  Cs1  1  0.75000000  0.75000000  0.50000000  1.0
  Pb  Pb2  1  0.83336000  0.66664000  0.99997333  1.0
  Pb  Pb3  1  0.66666667  0.16666667  0.00002667  1.0
  Pb  Pb4  1  0.33333333  0.83333333  0.99997333  1.0
  Pb  Pb5  1  0.16664000  0.33336000  0.00002667  1.0
  I  I6  1  0.00000000  0.00000000  0.00000000  1.0
  I  I7  1  0.50000000  0.50000000  0.00000000  1.0
  I  I8  1  0.97292500  0.47292500  0.25407300  1.0
  I  I9  1  0.78114800  0.97292500  0.25407300  1.0
  I  I10  1  0.47292500  0.28114800  0.25407300  1.0
  I  I11  1  0.28114800  0.78114800  0.25407300  1.0
  I  I12  1  0.71885200  0.21885200  0.74592700  1.0
  I  I13  1  0.52707500  0.71885200  0.74592700  1.0
  I  I14  1  0.21885200  0.02707500  0.74592700  1.0
  I  I15  1  0.02707500  0.52707500  0.74592700  1.0
