# generated using pymatgen
data_CsRb2Au7
_symmetry_space_group_name_H-M   'P 1'
_cell_length_a   5.71586200
_cell_length_b   7.40242700
_cell_length_c   7.47355085
_cell_angle_alpha   90.00000000
_cell_angle_beta   112.48279830
_cell_angle_gamma   90.00000000
_symmetry_Int_Tables_number   1
_chemical_formula_structural   CsRb2Au7
_chemical_formula_sum   'Cs1 Rb2 Au7'
_cell_volume   292.18114929
_cell_formula_units_Z   1
loop_
 _symmetry_equiv_pos_site_id
 _symmetry_equiv_pos_as_xyz
  1  'x, y, z'
loop_
 _atom_site_type_symbol
 _atom_site_label
 _atom_site_symmetry_multiplicity
 _atom_site_fract_x
 _atom_site_fract_y
 _atom_site_fract_z
 _atom_site_occupancy
  Cs  Cs0  1  0.33888200  0.50000000  0.67776400  1.0
  Rb  Rb1  1  0.50006400  0.00000000  0.00012800  1.0
  Rb  Rb2  1  0.66060500  0.50000000  0.32121000  1.0
  Au  Au3  1  0.89322000  0.19496700  0.78644000  1.0
  Au  Au4  1  0.10702100  0.19481300  0.21404200  1.0
  Au  Au5  1  0.10702100  0.80518700  0.21404200  1.0
  Au  Au6  1  0.89322000  0.80503300  0.78644000  1.0
  Au  Au7  1  0.50019400  1.00000000  0.49883500  1.0
  Au  Au8  1  0.99864100  1.00000000  0.49883500  1.0
  Au  Au9  1  0.00113200  0.50000000  0.00226400  1.0
