# generated using pymatgen
data_CsS
_symmetry_space_group_name_H-M   'P 1'
_cell_length_a   5.28606000
_cell_length_b   6.42028657
_cell_length_c   6.42028657
_cell_angle_alpha   69.88858616
_cell_angle_beta   65.69030691
_cell_angle_gamma   65.69030691
_symmetry_Int_Tables_number   1
_chemical_formula_structural   CsS
_chemical_formula_sum   'Cs2 S2'
_cell_volume   176.93184685
_cell_formula_units_Z   2
loop_
 _symmetry_equiv_pos_site_id
 _symmetry_equiv_pos_as_xyz
  1  'x, y, z'
loop_
 _atom_site_type_symbol
 _atom_site_label
 _atom_site_symmetry_multiplicity
 _atom_site_fract_x
 _atom_site_fract_y
 _atom_site_fract_z
 _atom_site_occupancy
  Cs  Cs0  1  0.27275100  0.22724900  0.22724900  1.0
  Cs  Cs1  1  0.72724900  0.77275100  0.77275100  1.0
  S  S2  1  1.00000000  0.14436300  0.85563700  1.0
  S  S3  1  1.00000000  0.85563700  0.14436300  1.0
