# generated using pymatgen
data_CsSmCdTe3
_symmetry_space_group_name_H-M   'P 1'
_cell_length_a   4.60577000
_cell_length_b   8.99813790
_cell_length_c   12.03612700
_cell_angle_alpha   90.00000000
_cell_angle_beta   90.00000000
_cell_angle_gamma   104.82864345
_symmetry_Int_Tables_number   1
_chemical_formula_structural   CsSmCdTe3
_chemical_formula_sum   'Cs2 Sm2 Cd2 Te6'
_cell_volume   482.20463301
_cell_formula_units_Z   2
loop_
 _symmetry_equiv_pos_site_id
 _symmetry_equiv_pos_as_xyz
  1  'x, y, z'
loop_
 _atom_site_type_symbol
 _atom_site_label
 _atom_site_symmetry_multiplicity
 _atom_site_fract_x
 _atom_site_fract_y
 _atom_site_fract_z
 _atom_site_occupancy
  Cs  Cs0  1  0.25040000  0.50080000  0.75000000  1.0
  Cs  Cs1  1  0.74960000  0.49920000  0.25000000  1.0
  Sm  Sm2  1  0.50000000  1.00000000  0.50000000  1.0
  Sm  Sm3  1  0.50000000  1.00000000  1.00000000  1.0
  Cd  Cd4  1  0.96388400  0.92776800  0.75000000  1.0
  Cd  Cd5  1  0.03611600  0.07223200  0.25000000  1.0
  Te  Te6  1  0.12146800  0.24293600  0.44980200  1.0
  Te  Te7  1  0.87853200  0.75706400  0.55019800  1.0
  Te  Te8  1  0.87853200  0.75706400  0.94980300  1.0
  Te  Te9  1  0.12146800  0.24293600  0.05019800  1.0
  Te  Te10  1  0.56568600  0.13137200  0.75000000  1.0
  Te  Te11  1  0.43431400  0.86862800  0.25000000  1.0
