# generated using pymatgen
data_CsSrI3
_symmetry_space_group_name_H-M   'P 1'
_cell_length_a   6.46480866
_cell_length_b   6.47227285
_cell_length_c   6.47227285
_cell_angle_alpha   89.98905811
_cell_angle_beta   89.90800579
_cell_angle_gamma   89.90800579
_symmetry_Int_Tables_number   1
_chemical_formula_structural   CsSrI3
_chemical_formula_sum   'Cs1 Sr1 I3'
_cell_volume   270.81217369
_cell_formula_units_Z   1
loop_
 _symmetry_equiv_pos_site_id
 _symmetry_equiv_pos_as_xyz
  1  'x, y, z'
loop_
 _atom_site_type_symbol
 _atom_site_label
 _atom_site_symmetry_multiplicity
 _atom_site_fract_x
 _atom_site_fract_y
 _atom_site_fract_z
 _atom_site_occupancy
  Cs  Cs0  1  0.00041500  0.99824200  0.99824200  1.0
  Sr  Sr1  1  0.48229200  0.49426900  0.49426900  1.0
  I  I2  1  0.48649000  0.50088900  0.99762600  1.0
  I  I3  1  0.98322000  0.51224600  0.51224600  1.0
  I  I4  1  0.48649000  0.99762600  0.50088900  1.0
