# generated using pymatgen
data_CsVNiF6
_symmetry_space_group_name_H-M   'P 1'
_cell_length_a   7.34423400
_cell_length_b   7.43357711
_cell_length_c   7.43357711
_cell_angle_alpha   61.39004754
_cell_angle_beta   60.39679058
_cell_angle_gamma   60.39679057
_symmetry_Int_Tables_number   1
_chemical_formula_structural   CsVNiF6
_chemical_formula_sum   'Cs2 V2 Ni2 F12'
_cell_volume   291.61976335
_cell_formula_units_Z   2
loop_
 _symmetry_equiv_pos_site_id
 _symmetry_equiv_pos_as_xyz
  1  'x, y, z'
loop_
 _atom_site_type_symbol
 _atom_site_label
 _atom_site_symmetry_multiplicity
 _atom_site_fract_x
 _atom_site_fract_y
 _atom_site_fract_z
 _atom_site_occupancy
  Cs  Cs0  1  0.12237400  0.12762600  0.62762600  1.0
  Cs  Cs1  1  0.87762600  0.87237400  0.37237400  1.0
  V  V2  1  0.50000000  0.00000000  1.00000000  1.0
  V  V3  1  0.50000000  0.50000000  0.50000000  1.0
  Ni  Ni4  1  1.00000000  0.50000000  1.00000000  1.0
  Ni  Ni5  1  0.50000000  0.50000000  0.00000000  1.0
  F  F6  1  0.56624700  0.18375300  0.68375300  1.0
  F  F7  1  0.17982400  0.57017600  0.07017600  1.0
  F  F8  1  0.56585100  0.57357200  0.67411400  1.0
  F  F9  1  0.18646300  0.17411400  0.07357200  1.0
  F  F10  1  0.18646300  0.57357200  0.67411400  1.0
  F  F11  1  0.56585100  0.17411400  0.07357200  1.0
  F  F12  1  0.43375300  0.81624700  0.31624700  1.0
  F  F13  1  0.82017600  0.42982400  0.92982400  1.0
  F  F14  1  0.43414900  0.42642800  0.32588600  1.0
  F  F15  1  0.81353700  0.82588600  0.92642800  1.0
  F  F16  1  0.81353700  0.42642800  0.32588600  1.0
  F  F17  1  0.43414900  0.82588600  0.92642800  1.0
