# generated using pymatgen
data_Cu2GeSe3
_symmetry_space_group_name_H-M   'P 1'
_cell_length_a   4.04187800
_cell_length_b   5.57784200
_cell_length_c   6.85460299
_cell_angle_alpha   114.00826058
_cell_angle_beta   107.14731221
_cell_angle_gamma   89.99999999
_symmetry_Int_Tables_number   1
_chemical_formula_structural   Cu2GeSe3
_chemical_formula_sum   'Cu2 Ge1 Se3'
_cell_volume   133.61250623
_cell_formula_units_Z   1
loop_
 _symmetry_equiv_pos_site_id
 _symmetry_equiv_pos_as_xyz
  1  'x, y, z'
loop_
 _atom_site_type_symbol
 _atom_site_label
 _atom_site_symmetry_multiplicity
 _atom_site_fract_x
 _atom_site_fract_y
 _atom_site_fract_z
 _atom_site_occupancy
  Cu  Cu0  1  0.16726900  0.90457400  0.33453800  1.0
  Cu  Cu1  1  0.83273000  0.57003500  0.66546100  1.0
  Ge  Ge2  1  0.50000000  0.26662700  0.00000000  1.0
  Se  Se3  1  0.32921800  0.33212000  0.65843600  1.0
  Se  Se4  1  0.67078200  0.67368400  0.34156400  1.0
  Se  Se5  1  1.00000000  0.99095900  1.00000000  1.0
