# generated using pymatgen
data_Cu2SO4
_symmetry_space_group_name_H-M   'P 1'
_cell_length_a   4.60599200
_cell_length_b   5.90323554
_cell_length_c   7.85210969
_cell_angle_alpha   83.42970651
_cell_angle_beta   72.94458608
_cell_angle_gamma   67.03776229
_symmetry_Int_Tables_number   1
_chemical_formula_structural   Cu2SO4
_chemical_formula_sum   'Cu4 S2 O8'
_cell_volume   187.93808488
_cell_formula_units_Z   2
loop_
 _symmetry_equiv_pos_site_id
 _symmetry_equiv_pos_as_xyz
  1  'x, y, z'
loop_
 _atom_site_type_symbol
 _atom_site_label
 _atom_site_symmetry_multiplicity
 _atom_site_fract_x
 _atom_site_fract_y
 _atom_site_fract_z
 _atom_site_occupancy
  Cu  Cu0  1  0.94828800  0.50000000  0.10342400  1.0
  Cu  Cu1  1  0.55171200  0.50000000  0.89657600  1.0
  Cu  Cu2  1  0.80171200  1.00000000  0.39657600  1.0
  Cu  Cu3  1  0.19828800  1.00000000  0.60342400  1.0
  S  S4  1  0.25000000  0.50000000  0.50000000  1.0
  S  S5  1  0.50000000  1.00000000  0.00000000  1.0
  O  O6  1  0.57216800  0.34344900  0.38181000  1.0
  O  O7  1  0.29742700  0.65655100  0.61819000  1.0
  O  O8  1  0.08438300  0.34344900  0.61819000  1.0
  O  O9  1  0.04602200  0.65655100  0.38181000  1.0
  O  O10  1  0.17783200  0.15655100  0.11819000  1.0
  O  O11  1  0.45257300  0.84344900  0.88181000  1.0
  O  O12  1  0.70397800  0.84344900  0.11819000  1.0
  O  O13  1  0.66561700  0.15655100  0.88181000  1.0
