# generated using pymatgen
data_Cu5As2
_symmetry_space_group_name_H-M   'P 1'
_cell_length_a   5.56577200
_cell_length_b   6.00252800
_cell_length_c   7.08365388
_cell_angle_alpha   115.06768965
_cell_angle_beta   113.13258968
_cell_angle_gamma   89.99999999
_symmetry_Int_Tables_number   1
_chemical_formula_structural   Cu5As2
_chemical_formula_sum   'Cu10 As4'
_cell_volume   193.15348089
_cell_formula_units_Z   2
loop_
 _symmetry_equiv_pos_site_id
 _symmetry_equiv_pos_as_xyz
  1  'x, y, z'
loop_
 _atom_site_type_symbol
 _atom_site_label
 _atom_site_symmetry_multiplicity
 _atom_site_fract_x
 _atom_site_fract_y
 _atom_site_fract_z
 _atom_site_occupancy
  Cu  Cu0  1  0.10354400  0.29414300  0.20708700  1.0
  Cu  Cu1  1  0.89645600  0.70585700  0.79291300  1.0
  Cu  Cu2  1  0.39645700  0.08705600  0.79291400  1.0
  Cu  Cu3  1  0.60354300  0.91294400  0.20708600  1.0
  Cu  Cu4  1  0.48121000  0.73121000  0.46242000  1.0
  Cu  Cu5  1  0.01879000  0.26879000  0.53758000  1.0
  Cu  Cu6  1  0.51879000  0.26879000  0.53758000  1.0
  Cu  Cu7  1  0.98121000  0.73121000  0.46242000  1.0
  Cu  Cu8  1  0.75000000  0.50000000  0.00000000  1.0
  Cu  Cu9  1  0.25000000  0.50000000  1.00000000  1.0
  As  As10  1  0.38337600  0.66028900  0.76675200  1.0
  As  As11  1  0.61662400  0.33971100  0.23324800  1.0
  As  As12  1  0.11662400  0.89353700  0.23324800  1.0
  As  As13  1  0.88337600  0.10646300  0.76675200  1.0
