# generated using pymatgen
data_Cu6SnWS8
_symmetry_space_group_name_H-M   'P 1'
_cell_length_a   5.27477100
_cell_length_b   7.59601100
_cell_length_c   7.59601100
_cell_angle_alpha   90.00000000
_cell_angle_beta   90.00000000
_cell_angle_gamma   90.00000000
_symmetry_Int_Tables_number   1
_chemical_formula_structural   Cu6SnWS8
_chemical_formula_sum   'Cu6 Sn1 W1 S8'
_cell_volume   304.35103276
_cell_formula_units_Z   1
loop_
 _symmetry_equiv_pos_site_id
 _symmetry_equiv_pos_as_xyz
  1  'x, y, z'
loop_
 _atom_site_type_symbol
 _atom_site_label
 _atom_site_symmetry_multiplicity
 _atom_site_fract_x
 _atom_site_fract_y
 _atom_site_fract_z
 _atom_site_occupancy
  Cu  Cu0  1  0.50000000  0.74996000  0.74996000  1.0
  Cu  Cu1  1  0.50000000  0.74996000  0.25004000  1.0
  Cu  Cu2  1  0.00179200  0.00000000  0.50000000  1.0
  Cu  Cu3  1  0.50000000  0.25004000  0.74996000  1.0
  Cu  Cu4  1  0.99820800  0.50000000  0.00000000  1.0
  Cu  Cu5  1  0.50000000  0.25004000  0.25004000  1.0
  Sn  Sn6  1  0.00000000  0.00000000  0.00000000  1.0
  W  W7  1  0.00000000  0.50000000  0.50000000  1.0
  S  S8  1  0.73554800  1.00000000  0.73479900  1.0
  S  S9  1  0.73554800  0.00000000  0.26520100  1.0
  S  S10  1  0.24469700  0.25642300  0.50000000  1.0
  S  S11  1  0.26445200  0.73479900  0.00000000  1.0
  S  S12  1  0.26445200  0.26520100  0.00000000  1.0
  S  S13  1  0.75530300  0.50000000  0.25642300  1.0
  S  S14  1  0.75530300  0.50000000  0.74357700  1.0
  S  S15  1  0.24469700  0.74357700  0.50000000  1.0
