# generated using pymatgen
data_CuAgGeSe3
_symmetry_space_group_name_H-M   'P 1'
_cell_length_a   7.05516181
_cell_length_b   7.05516181
_cell_length_c   7.18095748
_cell_angle_alpha   100.73359399
_cell_angle_beta   100.73359399
_cell_angle_gamma   119.49509103
_symmetry_Int_Tables_number   1
_chemical_formula_structural   CuAgGeSe3
_chemical_formula_sum   'Cu2 Ag2 Ge2 Se6'
_cell_volume   289.07231582
_cell_formula_units_Z   2
loop_
 _symmetry_equiv_pos_site_id
 _symmetry_equiv_pos_as_xyz
  1  'x, y, z'
loop_
 _atom_site_type_symbol
 _atom_site_label
 _atom_site_symmetry_multiplicity
 _atom_site_fract_x
 _atom_site_fract_y
 _atom_site_fract_z
 _atom_site_occupancy
  Cu  Cu0  1  0.02603500  0.19180400  0.85081400  1.0
  Cu  Cu1  1  0.19180400  0.02603500  0.35081400  1.0
  Ag  Ag2  1  0.86379400  0.35392200  0.36323600  1.0
  Ag  Ag3  1  0.35392200  0.86379400  0.86323600  1.0
  Ge  Ge4  1  0.70956000  0.54248300  0.88136700  1.0
  Ge  Ge5  1  0.54248300  0.70956000  0.38136700  1.0
  Se  Se6  1  0.25730200  0.75857300  0.46863400  1.0
  Se  Se7  1  0.75857300  0.25730200  0.96863400  1.0
  Se  Se8  1  0.05568000  0.92066000  0.99300300  1.0
  Se  Se9  1  0.92066000  0.05568000  0.49300300  1.0
  Se  Se10  1  0.40333400  0.55405300  0.99994500  1.0
  Se  Se11  1  0.55405300  0.40333400  0.49994500  1.0
