# generated using pymatgen
data_CuI
_symmetry_space_group_name_H-M   'P 1'
_cell_length_a   4.28597100
_cell_length_b   6.06552018
_cell_length_c   8.57754300
_cell_angle_alpha   90.00000000
_cell_angle_beta   90.00000000
_cell_angle_gamma   90.03566866
_symmetry_Int_Tables_number   1
_chemical_formula_structural   CuI
_chemical_formula_sum   'Cu4 I4'
_cell_volume   222.98728495
_cell_formula_units_Z   4
loop_
 _symmetry_equiv_pos_site_id
 _symmetry_equiv_pos_as_xyz
  1  'x, y, z'
loop_
 _atom_site_type_symbol
 _atom_site_label
 _atom_site_symmetry_multiplicity
 _atom_site_fract_x
 _atom_site_fract_y
 _atom_site_fract_z
 _atom_site_occupancy
  Cu  Cu0  1  0.43672400  0.72371600  0.62297300  1.0
  Cu  Cu1  1  0.93672400  0.22371600  0.37702700  1.0
  Cu  Cu2  1  0.48900300  0.73937400  0.12967000  1.0
  Cu  Cu3  1  0.98900300  0.23937400  0.87033000  1.0
  I  I4  1  0.94492200  0.97788100  0.62632300  1.0
  I  I5  1  0.44492200  0.47788100  0.37367700  1.0
  I  I6  1  0.98355200  0.98612800  0.12338100  1.0
  I  I7  1  0.48355200  0.48612800  0.87661900  1.0
