# generated using pymatgen
data_CuNi3O4
_symmetry_space_group_name_H-M   'P 1'
_cell_length_a   2.93152471
_cell_length_b   5.31806764
_cell_length_c   5.31810877
_cell_angle_alpha   66.90027959
_cell_angle_beta   90.00012262
_cell_angle_gamma   90.00089202
_symmetry_Int_Tables_number   1
_chemical_formula_structural   CuNi3O4
_chemical_formula_sum   'Cu1 Ni3 O4'
_cell_volume   76.26215813
_cell_formula_units_Z   1
loop_
 _symmetry_equiv_pos_site_id
 _symmetry_equiv_pos_as_xyz
  1  'x, y, z'
loop_
 _atom_site_type_symbol
 _atom_site_label
 _atom_site_symmetry_multiplicity
 _atom_site_fract_x
 _atom_site_fract_y
 _atom_site_fract_z
 _atom_site_occupancy
  Cu  Cu0  1  0.00002800  0.50001000  0.49999900  1.0
  Ni  Ni2  1  0.00000250  0.00000150  0.99999800  1.0
  Ni  Ni3  1  0.49999000  0.99999500  0.50000000  1.0
  Ni  Ni6  1  0.49998300  0.49999450  0.00000150  1.0
  O  O8  1  0.99999250  0.77240000  0.77239650  1.0
  O  O10  1  0.99999300  0.22759750  0.22760550  1.0
  O  O12  1  0.49994950  0.73659150  0.26337900  1.0
  O  O14  1  0.50006050  0.26341000  0.73662050  1.0
