# generated using pymatgen
data_Dy2Te5
_symmetry_space_group_name_H-M   'P 1'
_cell_length_a   4.37117200
_cell_length_b   4.37370100
_cell_length_c   22.07414813
_cell_angle_alpha   90.00000000
_cell_angle_beta   95.68222889
_cell_angle_gamma   90.00000000
_symmetry_Int_Tables_number   1
_chemical_formula_structural   Dy2Te5
_chemical_formula_sum   'Dy4 Te10'
_cell_volume   419.94430613
_cell_formula_units_Z   2
loop_
 _symmetry_equiv_pos_site_id
 _symmetry_equiv_pos_as_xyz
  1  'x, y, z'
loop_
 _atom_site_type_symbol
 _atom_site_label
 _atom_site_symmetry_multiplicity
 _atom_site_fract_x
 _atom_site_fract_y
 _atom_site_fract_z
 _atom_site_occupancy
  Dy  Dy0  1  0.09802900  0.75000000  0.19605800  1.0
  Dy  Dy1  1  0.90197100  0.25000000  0.80394200  1.0
  Dy  Dy2  1  0.30731500  0.75000000  0.61463000  1.0
  Dy  Dy3  1  0.69268500  0.25000000  0.38537000  1.0
  Te  Te4  1  0.95843000  0.75000000  0.91686000  1.0
  Te  Te5  1  0.04157000  0.25000000  0.08314000  1.0
  Te  Te6  1  0.54177400  0.75000000  0.08354800  1.0
  Te  Te7  1  0.45822600  0.25000000  0.91645200  1.0
  Te  Te8  1  0.74999700  0.75000000  0.49999400  1.0
  Te  Te9  1  0.25000300  0.25000000  0.50000600  1.0
  Te  Te10  1  0.17246800  0.75000000  0.34493600  1.0
  Te  Te11  1  0.82753200  0.25000000  0.65506400  1.0
  Te  Te12  1  0.37989600  0.75000000  0.75979200  1.0
  Te  Te13  1  0.62010400  0.25000000  0.24020800  1.0
