# generated using pymatgen
data_Dy5BiPt2
_symmetry_space_group_name_H-M   'P 1'
_cell_length_a   7.79308800
_cell_length_b   8.85982199
_cell_length_c   7.79308800
_cell_angle_alpha   63.90892007
_cell_angle_beta   89.99999999
_cell_angle_gamma   116.09107992
_symmetry_Int_Tables_number   1
_chemical_formula_structural   Dy5BiPt2
_chemical_formula_sum   'Dy10 Bi2 Pt4'
_cell_volume   421.33603590
_cell_formula_units_Z   2
loop_
 _symmetry_equiv_pos_site_id
 _symmetry_equiv_pos_as_xyz
  1  'x, y, z'
loop_
 _atom_site_type_symbol
 _atom_site_label
 _atom_site_symmetry_multiplicity
 _atom_site_fract_x
 _atom_site_fract_y
 _atom_site_fract_z
 _atom_site_occupancy
  Dy  Dy0  1  0.00000000  0.00000000  0.00000000  1.0
  Dy  Dy1  1  0.50000000  0.00000000  0.50000000  1.0
  Dy  Dy2  1  0.79267200  0.27117000  0.02150200  1.0
  Dy  Dy3  1  0.20732800  0.72883000  0.97849800  1.0
  Dy  Dy4  1  0.47849800  0.27117000  0.70732800  1.0
  Dy  Dy5  1  0.29267200  0.27117000  0.20732800  1.0
  Dy  Dy6  1  0.02150200  0.72883000  0.47849800  1.0
  Dy  Dy7  1  0.52150200  0.72883000  0.29267200  1.0
  Dy  Dy8  1  0.70732800  0.72883000  0.79267200  1.0
  Dy  Dy9  1  0.97849800  0.27117000  0.52150200  1.0
  Bi  Bi10  1  0.25000000  0.50000000  0.75000000  1.0
  Bi  Bi11  1  0.75000000  0.50000000  0.25000000  1.0
  Pt  Pt12  1  0.13810300  0.00000000  0.63810300  1.0
  Pt  Pt13  1  0.86189700  0.00000000  0.36189700  1.0
  Pt  Pt14  1  0.63810300  1.00000000  0.86189700  1.0
  Pt  Pt15  1  0.36189700  1.00000000  0.13810300  1.0
