# generated using pymatgen
data_Dy5Ru2
_symmetry_space_group_name_H-M   'P 1'
_cell_length_a   6.35778800
_cell_length_b   7.27546809
_cell_length_c   8.49644830
_cell_angle_alpha   96.79492193
_cell_angle_beta   111.97140830
_cell_angle_gamma   90.00000000
_symmetry_Int_Tables_number   1
_chemical_formula_structural   Dy5Ru2
_chemical_formula_sum   'Dy10 Ru4'
_cell_volume   361.48820112
_cell_formula_units_Z   2
loop_
 _symmetry_equiv_pos_site_id
 _symmetry_equiv_pos_as_xyz
  1  'x, y, z'
loop_
 _atom_site_type_symbol
 _atom_site_label
 _atom_site_symmetry_multiplicity
 _atom_site_fract_x
 _atom_site_fract_y
 _atom_site_fract_z
 _atom_site_occupancy
  Dy  Dy0  1  0.02050800  0.58523800  0.81380300  1.0
  Dy  Dy1  1  0.20670500  0.91476200  0.18619700  1.0
  Dy  Dy2  1  0.64036100  0.31412800  0.43413500  1.0
  Dy  Dy3  1  0.20622600  0.18587200  0.56586500  1.0
  Dy  Dy4  1  0.35963900  0.68587200  0.56586500  1.0
  Dy  Dy5  1  0.79377400  0.81412800  0.43413500  1.0
  Dy  Dy6  1  0.79329500  0.08523800  0.81380300  1.0
  Dy  Dy7  1  0.97949200  0.41476200  0.18619700  1.0
  Dy  Dy8  1  0.57923900  0.75000000  0.00000000  1.0
  Dy  Dy9  1  0.42076100  0.25000000  0.00000000  1.0
  Ru  Ru10  1  0.39684600  0.57602700  0.22160100  1.0
  Ru  Ru11  1  0.17524500  0.92397300  0.77839900  1.0
  Ru  Ru12  1  0.60315400  0.42397300  0.77839900  1.0
  Ru  Ru13  1  0.82475500  0.07602700  0.22160100  1.0
