# generated using pymatgen
data_Dy6FeTe2
_symmetry_space_group_name_H-M   'P 1'
_cell_length_a   3.97500600
_cell_length_b   8.32861400
_cell_length_c   8.32861374
_cell_angle_alpha   120.00000104
_cell_angle_beta   90.00000000
_cell_angle_gamma   90.00000000
_symmetry_Int_Tables_number   1
_chemical_formula_structural   Dy6FeTe2
_chemical_formula_sum   'Dy6 Fe1 Te2'
_cell_volume   238.78875514
_cell_formula_units_Z   1
loop_
 _symmetry_equiv_pos_site_id
 _symmetry_equiv_pos_as_xyz
  1  'x, y, z'
loop_
 _atom_site_type_symbol
 _atom_site_label
 _atom_site_symmetry_multiplicity
 _atom_site_fract_x
 _atom_site_fract_y
 _atom_site_fract_z
 _atom_site_occupancy
  Dy  Dy0  1  0.50000000  0.39710100  0.39710100  1.0
  Dy  Dy1  1  0.50000000  0.60289900  0.00000000  1.0
  Dy  Dy2  1  0.50000000  0.00000000  0.60289900  1.0
  Dy  Dy3  1  0.00000000  1.00000000  0.23546400  1.0
  Dy  Dy4  1  0.00000000  0.23546400  0.00000000  1.0
  Dy  Dy5  1  0.00000000  0.76453600  0.76453600  1.0
  Fe  Fe6  1  0.50000000  0.00000000  0.00000000  1.0
  Te  Te7  1  0.00000000  0.66666667  0.33333333  1.0
  Te  Te8  1  0.00000000  0.33333333  0.66666667  1.0
