# generated using pymatgen
data_DyAgSn
_symmetry_space_group_name_H-M   'P 1'
_cell_length_a   4.74535600
_cell_length_b   4.74535700
_cell_length_c   7.41669200
_cell_angle_alpha   90.00000000
_cell_angle_beta   90.00000000
_cell_angle_gamma   119.99999304
_symmetry_Int_Tables_number   1
_chemical_formula_structural   DyAgSn
_chemical_formula_sum   'Dy2 Ag2 Sn2'
_cell_volume   144.63673046
_cell_formula_units_Z   2
loop_
 _symmetry_equiv_pos_site_id
 _symmetry_equiv_pos_as_xyz
  1  'x, y, z'
loop_
 _atom_site_type_symbol
 _atom_site_label
 _atom_site_symmetry_multiplicity
 _atom_site_fract_x
 _atom_site_fract_y
 _atom_site_fract_z
 _atom_site_occupancy
  Dy  Dy0  1  0.00000000  0.00000000  0.27496000  1.0
  Dy  Dy1  1  0.00000000  0.00000000  0.77496000  1.0
  Ag  Ag2  1  0.33333333  0.66666667  0.46276600  1.0
  Ag  Ag3  1  0.66666667  0.33333333  0.96276600  1.0
  Sn  Sn4  1  0.66666667  0.33333333  0.55427400  1.0
  Sn  Sn5  1  0.33333333  0.66666667  0.05427400  1.0
