# generated using pymatgen
data_DyCdGa
_symmetry_space_group_name_H-M   'P 1'
_cell_length_a   4.39799200
_cell_length_b   7.26485200
_cell_length_c   7.26485167
_cell_angle_alpha   120.00000152
_cell_angle_beta   90.00000000
_cell_angle_gamma   90.00000000
_symmetry_Int_Tables_number   1
_chemical_formula_structural   DyCdGa
_chemical_formula_sum   'Dy3 Cd3 Ga3'
_cell_volume   201.01968270
_cell_formula_units_Z   3
loop_
 _symmetry_equiv_pos_site_id
 _symmetry_equiv_pos_as_xyz
  1  'x, y, z'
loop_
 _atom_site_type_symbol
 _atom_site_label
 _atom_site_symmetry_multiplicity
 _atom_site_fract_x
 _atom_site_fract_y
 _atom_site_fract_z
 _atom_site_occupancy
  Dy  Dy0  1  0.50000000  0.57734100  1.00000000  1.0
  Dy  Dy1  1  0.50000000  0.42265900  0.42265900  1.0
  Dy  Dy2  1  0.50000000  0.00000000  0.57734100  1.0
  Cd  Cd3  1  1.00000000  0.24749400  1.00000000  1.0
  Cd  Cd4  1  1.00000000  0.75250600  0.75250600  1.0
  Cd  Cd5  1  1.00000000  0.00000000  0.24749400  1.0
  Ga  Ga6  1  1.00000000  0.33333333  0.66666667  1.0
  Ga  Ga7  1  1.00000000  0.66666667  0.33333333  1.0
  Ga  Ga8  1  0.50000000  0.00000000  0.00000000  1.0
