# generated using pymatgen
data_DyGePd
_symmetry_space_group_name_H-M   'P 1'
_cell_length_a   4.41435600
_cell_length_b   7.63203600
_cell_length_c   11.39799485
_cell_angle_alpha   109.56021286
_cell_angle_beta   101.16564721
_cell_angle_gamma   90.00000002
_symmetry_Int_Tables_number   1
_chemical_formula_structural   DyGePd
_chemical_formula_sum   'Dy6 Ge6 Pd6'
_cell_volume   354.12035561
_cell_formula_units_Z   6
loop_
 _symmetry_equiv_pos_site_id
 _symmetry_equiv_pos_as_xyz
  1  'x, y, z'
loop_
 _atom_site_type_symbol
 _atom_site_label
 _atom_site_symmetry_multiplicity
 _atom_site_fract_x
 _atom_site_fract_y
 _atom_site_fract_z
 _atom_site_occupancy
  Dy  Dy0  1  1.00000000  0.46463900  1.00000000  1.0
  Dy  Dy1  1  0.66638400  0.13141700  0.33276700  1.0
  Dy  Dy2  1  0.33361700  0.79865000  0.66723400  1.0
  Dy  Dy3  1  0.50000000  0.04811200  0.00000000  1.0
  Dy  Dy4  1  0.83266700  0.37432600  0.66533400  1.0
  Dy  Dy5  1  0.16733300  0.70899200  0.33466600  1.0
  Ge  Ge6  1  0.93516600  0.78036800  0.87033300  1.0
  Ge  Ge7  1  0.06483300  0.91003500  0.12966600  1.0
  Ge  Ge8  1  0.76477100  0.92703500  0.52954200  1.0
  Ge  Ge9  1  0.23522900  0.39749300  0.47045800  1.0
  Ge  Ge10  1  0.59381400  0.43807200  0.18762800  1.0
  Ge  Ge11  1  0.40618600  0.25044400  0.81237200  1.0
  Pd  Pd12  1  0.89585900  0.06862500  0.79171800  1.0
  Pd  Pd13  1  0.10414100  0.27690700  0.20828200  1.0
  Pd  Pd14  1  0.73328200  0.56674000  0.46656400  1.0
  Pd  Pd15  1  0.26671800  0.10017600  0.53343600  1.0
  Pd  Pd16  1  0.57221500  0.74895000  0.14443000  1.0
  Pd  Pd17  1  0.42778500  0.60452000  0.85557000  1.0
