# generated using pymatgen
data_DyMn2SiC
_symmetry_space_group_name_H-M   'P 1'
_cell_length_a   3.71252800
_cell_length_b   5.61081526
_cell_length_c   6.99191000
_cell_angle_alpha   90.00000000
_cell_angle_beta   90.00000000
_cell_angle_gamma   109.31957192
_symmetry_Int_Tables_number   1
_chemical_formula_structural   DyMn2SiC
_chemical_formula_sum   'Dy2 Mn4 Si2 C2'
_cell_volume   137.44215847
_cell_formula_units_Z   2
loop_
 _symmetry_equiv_pos_site_id
 _symmetry_equiv_pos_as_xyz
  1  'x, y, z'
loop_
 _atom_site_type_symbol
 _atom_site_label
 _atom_site_symmetry_multiplicity
 _atom_site_fract_x
 _atom_site_fract_y
 _atom_site_fract_z
 _atom_site_occupancy
  Dy  Dy0  1  0.45555400  0.91110800  0.75000000  1.0
  Dy  Dy1  1  0.54444600  0.08889200  0.25000000  1.0
  Mn  Mn2  1  0.16797100  0.33594200  0.93808500  1.0
  Mn  Mn3  1  0.83202900  0.66405800  0.06191500  1.0
  Mn  Mn4  1  0.83202900  0.66405800  0.43808500  1.0
  Mn  Mn5  1  0.16797100  0.33594200  0.56191500  1.0
  Si  Si6  1  0.73531200  0.47062400  0.75000000  1.0
  Si  Si7  1  0.26468800  0.52937600  0.25000000  1.0
  C  C8  1  0.00000000  0.00000000  0.00000000  1.0
  C  C9  1  0.00000000  0.00000000  0.50000000  1.0
