# generated using pymatgen
data_DyNbO4
_symmetry_space_group_name_H-M   'P 1'
_cell_length_a   5.25284191
_cell_length_b   5.25284191
_cell_length_c   6.70252538
_cell_angle_alpha   113.06999887
_cell_angle_beta   113.06999899
_cell_angle_gamma   90.00000000
_symmetry_Int_Tables_number   1
_chemical_formula_structural   DyNbO4
_chemical_formula_sum   'Dy2 Nb2 O8'
_cell_volume   153.94372283
_cell_formula_units_Z   2
loop_
 _symmetry_equiv_pos_site_id
 _symmetry_equiv_pos_as_xyz
  1  'x, y, z'
loop_
 _atom_site_type_symbol
 _atom_site_label
 _atom_site_symmetry_multiplicity
 _atom_site_fract_x
 _atom_site_fract_y
 _atom_site_fract_z
 _atom_site_occupancy
  Dy  Dy0  1  0.37500000  0.62500000  0.25000000  1.0
  Dy  Dy1  1  0.62500000  0.37500000  0.75000000  1.0
  Nb  Nb2  1  0.87500000  0.12500000  0.25000000  1.0
  Nb  Nb3  1  0.12500000  0.87500000  0.75000000  1.0
  O  O4  1  0.60996943  0.78229617  0.07192355  1.0
  O  O5  1  0.96195413  0.28962737  0.07192355  1.0
  O  O6  1  0.78229618  0.96195412  0.57192355  1.0
  O  O7  1  0.28962738  0.60996942  0.57192355  1.0
  O  O8  1  0.39003057  0.21770383  0.92807645  1.0
  O  O9  1  0.03804587  0.71037263  0.92807645  1.0
  O  O10  1  0.21770382  0.03804588  0.42807645  1.0
  O  O11  1  0.71037262  0.39003058  0.42807645  1.0
