# generated using pymatgen
data_DyZn2
_symmetry_space_group_name_H-M   'P 1'
_cell_length_a   4.50959400
_cell_length_b   5.64096898
_cell_length_c   5.64096898
_cell_angle_alpha   78.70139605
_cell_angle_beta   66.43944773
_cell_angle_gamma   66.43944774
_symmetry_Int_Tables_number   1
_chemical_formula_structural   DyZn2
_chemical_formula_sum   'Dy2 Zn4'
_cell_volume   120.45877564
_cell_formula_units_Z   2
loop_
 _symmetry_equiv_pos_site_id
 _symmetry_equiv_pos_as_xyz
  1  'x, y, z'
loop_
 _atom_site_type_symbol
 _atom_site_label
 _atom_site_symmetry_multiplicity
 _atom_site_fract_x
 _atom_site_fract_y
 _atom_site_fract_z
 _atom_site_occupancy
  Dy  Dy0  1  0.46410300  0.78589700  0.28589700  1.0
  Dy  Dy1  1  0.53589700  0.21410300  0.71410300  1.0
  Zn  Zn2  1  0.83373400  0.21488000  0.11765200  1.0
  Zn  Zn3  1  0.16626600  0.78512000  0.88234800  1.0
  Zn  Zn4  1  0.16626600  0.38234800  0.28512000  1.0
  Zn  Zn5  1  0.83373400  0.61765200  0.71488000  1.0
