# generated using pymatgen
data_Er(CuTe)3
_symmetry_space_group_name_H-M   'P 1'
_cell_length_a   7.45384512
_cell_length_b   7.45384512
_cell_length_c   8.20190469
_cell_angle_alpha   62.97385358
_cell_angle_beta   62.97385358
_cell_angle_gamma   60.00000779
_symmetry_Int_Tables_number   1
_chemical_formula_structural   Er(CuTe)3
_chemical_formula_sum   'Er2 Cu6 Te6'
_cell_volume   335.95767328
_cell_formula_units_Z   2
loop_
 _symmetry_equiv_pos_site_id
 _symmetry_equiv_pos_as_xyz
  1  'x, y, z'
loop_
 _atom_site_type_symbol
 _atom_site_label
 _atom_site_symmetry_multiplicity
 _atom_site_fract_x
 _atom_site_fract_y
 _atom_site_fract_z
 _atom_site_occupancy
  Er  Er0  1  0.83383600  0.83383600  0.49849200  1.0
  Er  Er1  1  0.16616400  0.16616400  0.50150800  1.0
  Cu  Cu2  1  0.62813900  0.97380200  0.12466900  1.0
  Cu  Cu3  1  0.97380200  0.27339000  0.12466900  1.0
  Cu  Cu4  1  0.27339000  0.62813900  0.12466900  1.0
  Cu  Cu5  1  0.72661000  0.37186100  0.87533100  1.0
  Cu  Cu6  1  0.02619800  0.72661000  0.87533100  1.0
  Cu  Cu7  1  0.37186100  0.02619800  0.87533100  1.0
  Te  Te8  1  0.41977300  0.73861000  0.74522800  1.0
  Te  Te9  1  0.09638900  0.41977300  0.74522800  1.0
  Te  Te10  1  0.73861000  0.09638900  0.74522800  1.0
  Te  Te11  1  0.26139000  0.90361100  0.25477200  1.0
  Te  Te12  1  0.90361100  0.58022700  0.25477200  1.0
  Te  Te13  1  0.58022700  0.26139000  0.25477200  1.0
