# generated using pymatgen
data_Er2AlNi2
_symmetry_space_group_name_H-M   'P 1'
_cell_length_a   4.12542600
_cell_length_b   5.32479096
_cell_length_c   5.32479096
_cell_angle_alpha   60.33307868
_cell_angle_beta   67.20847953
_cell_angle_gamma   67.20847953
_symmetry_Int_Tables_number   1
_chemical_formula_structural   Er2AlNi2
_chemical_formula_sum   'Er2 Al1 Ni2'
_cell_volume   90.86391914
_cell_formula_units_Z   1
loop_
 _symmetry_equiv_pos_site_id
 _symmetry_equiv_pos_as_xyz
  1  'x, y, z'
loop_
 _atom_site_type_symbol
 _atom_site_label
 _atom_site_symmetry_multiplicity
 _atom_site_fract_x
 _atom_site_fract_y
 _atom_site_fract_z
 _atom_site_occupancy
  Er  Er0  1  0.20319300  0.29680700  0.29680700  1.0
  Er  Er1  1  0.79680700  0.70319300  0.70319300  1.0
  Al  Al2  1  0.00000000  0.00000000  0.00000000  1.0
  Ni  Ni3  1  0.50000000  0.27007000  0.72993000  1.0
  Ni  Ni4  1  0.50000000  0.72993000  0.27007000  1.0
