# generated using pymatgen
data_Er2Co3Ge5
_symmetry_space_group_name_H-M   'P 1'
_cell_length_a   5.69081904
_cell_length_b   8.04383344
_cell_length_c   8.04383344
_cell_angle_alpha   93.79427208
_cell_angle_beta   109.46580651
_cell_angle_gamma   109.46580651
_symmetry_Int_Tables_number   1
_chemical_formula_structural   Er2Co3Ge5
_chemical_formula_sum   'Er4 Co6 Ge10'
_cell_volume   320.75268931
_cell_formula_units_Z   2
loop_
 _symmetry_equiv_pos_site_id
 _symmetry_equiv_pos_as_xyz
  1  'x, y, z'
loop_
 _atom_site_type_symbol
 _atom_site_label
 _atom_site_symmetry_multiplicity
 _atom_site_fract_x
 _atom_site_fract_y
 _atom_site_fract_z
 _atom_site_occupancy
  Er  Er0  1  0.26764100  0.12736800  0.40943900  1.0
  Er  Er1  1  0.76764100  0.40943900  0.12736800  1.0
  Er  Er2  1  0.73235900  0.87263200  0.59056100  1.0
  Er  Er3  1  0.23235900  0.59056100  0.87263200  1.0
  Co  Co4  1  0.25000000  0.99726200  0.00273800  1.0
  Co  Co5  1  0.75000000  0.00273800  0.99726200  1.0
  Co  Co6  1  0.61969000  0.45616700  0.73862600  1.0
  Co  Co7  1  0.11969000  0.73862600  0.45616700  1.0
  Co  Co8  1  0.38031000  0.54383300  0.26137400  1.0
  Co  Co9  1  0.88031000  0.26137400  0.54383300  1.0
  Ge  Ge10  1  0.67358200  0.08055600  0.26193300  1.0
  Ge  Ge11  1  0.82641800  0.73806700  0.91944400  1.0
  Ge  Ge12  1  0.32641800  0.91944400  0.73806700  1.0
  Ge  Ge13  1  0.17358200  0.26193300  0.08055600  1.0
  Ge  Ge14  1  0.25000000  0.78725100  0.21274900  1.0
  Ge  Ge15  1  0.75000000  0.21274900  0.78725100  1.0
  Ge  Ge16  1  0.25000000  0.49076200  0.50923800  1.0
  Ge  Ge17  1  0.75000000  0.50923800  0.49076200  1.0
  Ge  Ge18  1  0.25000000  0.22557300  0.77442700  1.0
  Ge  Ge19  1  0.75000000  0.77442700  0.22557300  1.0
