# generated using pymatgen
data_Er2FeC4
_symmetry_space_group_name_H-M   'P 1'
_cell_length_a   4.99445400
_cell_length_b   6.53495055
_cell_length_c   6.53495055
_cell_angle_alpha   69.60715509
_cell_angle_beta   67.53406773
_cell_angle_gamma   67.53406773
_symmetry_Int_Tables_number   1
_chemical_formula_structural   Er2FeC4
_chemical_formula_sum   'Er4 Fe2 C8'
_cell_volume   176.95363087
_cell_formula_units_Z   2
loop_
 _symmetry_equiv_pos_site_id
 _symmetry_equiv_pos_as_xyz
  1  'x, y, z'
loop_
 _atom_site_type_symbol
 _atom_site_label
 _atom_site_symmetry_multiplicity
 _atom_site_fract_x
 _atom_site_fract_y
 _atom_site_fract_z
 _atom_site_occupancy
  Er  Er0  1  0.85538900  0.80016800  0.48905300  1.0
  Er  Er1  1  0.14461100  0.19983200  0.51094700  1.0
  Er  Er2  1  0.64461000  0.51094800  0.19983200  1.0
  Er  Er3  1  0.35539000  0.48905200  0.80016800  1.0
  Fe  Fe4  1  0.75000000  0.00000000  0.00000000  1.0
  Fe  Fe5  1  0.25000000  0.00000000  0.00000000  1.0
  C  C6  1  0.57805100  0.08811000  0.75578900  1.0
  C  C7  1  0.42194900  0.91189000  0.24421100  1.0
  C  C8  1  0.92195000  0.24421000  0.91189000  1.0
  C  C9  1  0.07805000  0.75579000  0.08811000  1.0
  C  C10  1  0.62938500  0.20931700  0.53191400  1.0
  C  C11  1  0.37061500  0.79068300  0.46808600  1.0
  C  C12  1  0.12938400  0.53191500  0.20931700  1.0
  C  C13  1  0.87061600  0.46808500  0.79068300  1.0
