# generated using pymatgen
data_Er3CoSi3
_symmetry_space_group_name_H-M   'P 1'
_cell_length_a   4.14729200
_cell_length_b   5.59804750
_cell_length_c   12.66241535
_cell_angle_alpha   84.83558529
_cell_angle_beta   80.57456794
_cell_angle_gamma   68.25828787
_symmetry_Int_Tables_number   1
_chemical_formula_structural   Er3CoSi3
_chemical_formula_sum   'Er6 Co2 Si6'
_cell_volume   269.24240063
_cell_formula_units_Z   2
loop_
 _symmetry_equiv_pos_site_id
 _symmetry_equiv_pos_as_xyz
  1  'x, y, z'
loop_
 _atom_site_type_symbol
 _atom_site_label
 _atom_site_symmetry_multiplicity
 _atom_site_fract_x
 _atom_site_fract_y
 _atom_site_fract_z
 _atom_site_occupancy
  Er  Er0  1  0.74668700  0.73507800  0.77154800  1.0
  Er  Er1  1  0.39902100  0.28234400  0.91961400  1.0
  Er  Er2  1  0.60097900  0.71765600  0.08038600  1.0
  Er  Er3  1  0.47498900  0.67068000  0.37934200  1.0
  Er  Er4  1  0.25331300  0.26492200  0.22845200  1.0
  Er  Er5  1  0.52501100  0.32932000  0.62065800  1.0
  Co  Co6  1  0.75283100  0.07722100  0.41711700  1.0
  Co  Co7  1  0.24716900  0.92277900  0.58288300  1.0
  Si  Si8  1  0.05180900  0.13741300  0.75896900  1.0
  Si  Si9  1  0.13893200  0.26617700  0.45595900  1.0
  Si  Si10  1  0.86106800  0.73382300  0.54404100  1.0
  Si  Si11  1  0.94819100  0.86258700  0.24103100  1.0
  Si  Si12  1  0.88447700  0.15500400  0.07604200  1.0
  Si  Si13  1  0.11552300  0.84499600  0.92395800  1.0
