# generated using pymatgen
data_Er3GaO6
_symmetry_space_group_name_H-M   'P 1'
_cell_length_a   5.39696300
_cell_length_b   7.07306756
_cell_length_c   7.07306756
_cell_angle_alpha   102.85626203
_cell_angle_beta   90.00000000
_cell_angle_gamma   90.00000000
_symmetry_Int_Tables_number   1
_chemical_formula_structural   Er3GaO6
_chemical_formula_sum   'Er6 Ga2 O12'
_cell_volume   263.23224133
_cell_formula_units_Z   2
loop_
 _symmetry_equiv_pos_site_id
 _symmetry_equiv_pos_as_xyz
  1  'x, y, z'
loop_
 _atom_site_type_symbol
 _atom_site_label
 _atom_site_symmetry_multiplicity
 _atom_site_fract_x
 _atom_site_fract_y
 _atom_site_fract_z
 _atom_site_occupancy
  Er  Er0  1  0.92932100  0.60139500  0.39860500  1.0
  Er  Er1  1  0.42932100  0.39860500  0.60139500  1.0
  Er  Er2  1  0.97845800  0.70149000  0.91170800  1.0
  Er  Er3  1  0.47845800  0.29851000  0.08829200  1.0
  Er  Er4  1  0.97845800  0.08829200  0.29851000  1.0
  Er  Er5  1  0.47845800  0.91170800  0.70149000  1.0
  Ga  Ga6  1  0.50874800  0.80638700  0.19361300  1.0
  Ga  Ga7  1  0.00874800  0.19361300  0.80638700  1.0
  O  O8  1  0.16850800  0.78462300  0.21537700  1.0
  O  O9  1  0.66850800  0.21537700  0.78462300  1.0
  O  O10  1  0.65706700  0.96129800  0.03870200  1.0
  O  O11  1  0.15706700  0.03870200  0.96129800  1.0
  O  O12  1  0.70432500  0.64305800  0.67783300  1.0
  O  O13  1  0.20432500  0.35694200  0.32216700  1.0
  O  O14  1  0.70432500  0.32216700  0.35694200  1.0
  O  O15  1  0.20432500  0.67783300  0.64305800  1.0
  O  O16  1  0.19028500  0.10598600  0.57574900  1.0
  O  O17  1  0.69028500  0.89401400  0.42425100  1.0
  O  O18  1  0.19028500  0.42425100  0.89401400  1.0
  O  O19  1  0.69028500  0.57574900  0.10598600  1.0
