# generated using pymatgen
data_Er3Mg
_symmetry_space_group_name_H-M   'P 1'
_cell_length_a   5.48383000
_cell_length_b   6.96749600
_cell_length_c   6.96749640
_cell_angle_alpha   60.00000190
_cell_angle_beta   90.00000000
_cell_angle_gamma   90.00000000
_symmetry_Int_Tables_number   1
_chemical_formula_structural   Er3Mg
_chemical_formula_sum   'Er6 Mg2'
_cell_volume   230.55158067
_cell_formula_units_Z   2
loop_
 _symmetry_equiv_pos_site_id
 _symmetry_equiv_pos_as_xyz
  1  'x, y, z'
loop_
 _atom_site_type_symbol
 _atom_site_label
 _atom_site_symmetry_multiplicity
 _atom_site_fract_x
 _atom_site_fract_y
 _atom_site_fract_z
 _atom_site_occupancy
  Er  Er0  1  0.75000000  0.66148100  0.16925900  1.0
  Er  Er1  1  0.75000000  0.16926000  0.66148000  1.0
  Er  Er2  1  0.75000000  0.16926000  0.16925900  1.0
  Er  Er3  1  0.25000000  0.83074000  0.83074100  1.0
  Er  Er4  1  0.25000000  0.83074000  0.33852000  1.0
  Er  Er5  1  0.25000000  0.33851900  0.83074100  1.0
  Mg  Mg6  1  0.75000000  0.66666667  0.66666667  1.0
  Mg  Mg7  1  0.25000000  0.33333333  0.33333333  1.0
