# generated using pymatgen
data_Er5BiAu2
_symmetry_space_group_name_H-M   'P 1'
_cell_length_a   8.09506200
_cell_length_b   8.66290789
_cell_length_c   8.09506200
_cell_angle_alpha   62.14565557
_cell_angle_beta   90.00000000
_cell_angle_gamma   117.85434442
_symmetry_Int_Tables_number   1
_chemical_formula_structural   Er5BiAu2
_chemical_formula_sum   'Er10 Bi2 Au4'
_cell_volume   426.10121454
_cell_formula_units_Z   2
loop_
 _symmetry_equiv_pos_site_id
 _symmetry_equiv_pos_as_xyz
  1  'x, y, z'
loop_
 _atom_site_type_symbol
 _atom_site_label
 _atom_site_symmetry_multiplicity
 _atom_site_fract_x
 _atom_site_fract_y
 _atom_site_fract_z
 _atom_site_occupancy
  Er  Er0  1  0.50000000  0.00000000  0.50000000  1.0
  Er  Er1  1  0.00000000  0.00000000  0.00000000  1.0
  Er  Er2  1  0.51393600  0.71927100  0.29466500  1.0
  Er  Er3  1  0.20533400  0.71926900  0.98606500  1.0
  Er  Er4  1  0.01393600  0.71927000  0.48606400  1.0
  Er  Er5  1  0.70533400  0.71927000  0.79466600  1.0
  Er  Er6  1  0.48606400  0.28072900  0.70533500  1.0
  Er  Er7  1  0.79466600  0.28073100  0.01393500  1.0
  Er  Er8  1  0.98606400  0.28073000  0.51393600  1.0
  Er  Er9  1  0.29466600  0.28073000  0.20533400  1.0
  Bi  Bi10  1  0.25000000  0.50000000  0.75000000  1.0
  Bi  Bi11  1  0.75000000  0.50000000  0.25000000  1.0
  Au  Au12  1  0.13923600  0.00000000  0.63923600  1.0
  Au  Au13  1  0.86076400  1.00000000  0.36076400  1.0
  Au  Au14  1  0.63923600  1.00000000  0.86076400  1.0
  Au  Au15  1  0.36076400  1.00000000  0.13923600  1.0
