# generated using pymatgen
data_ErAgS2
_symmetry_space_group_name_H-M   'P 1'
_cell_length_a   5.39726400
_cell_length_b   5.39726400
_cell_length_c   7.10789436
_cell_angle_alpha   112.31304932
_cell_angle_beta   112.31304931
_cell_angle_gamma   90.00000000
_symmetry_Int_Tables_number   1
_chemical_formula_structural   ErAgS2
_chemical_formula_sum   'Er2 Ag2 S4'
_cell_volume   174.67817378
_cell_formula_units_Z   2
loop_
 _symmetry_equiv_pos_site_id
 _symmetry_equiv_pos_as_xyz
  1  'x, y, z'
loop_
 _atom_site_type_symbol
 _atom_site_label
 _atom_site_symmetry_multiplicity
 _atom_site_fract_x
 _atom_site_fract_y
 _atom_site_fract_z
 _atom_site_occupancy
  Er  Er0  1  0.75142000  0.25142000  0.50284000  1.0
  Er  Er1  1  0.00142000  0.00142000  0.00284000  1.0
  Ag  Ag2  1  0.21903400  0.71903400  0.43806800  1.0
  Ag  Ag3  1  0.46903400  0.46903400  0.93806800  1.0
  S  S4  1  0.98187200  0.48187200  0.96374400  1.0
  S  S5  1  0.23187200  0.23187200  0.46374400  1.0
  S  S6  1  0.52628400  0.02628400  0.05256800  1.0
  S  S7  1  0.77628400  0.77628400  0.55256800  1.0
