# generated using pymatgen
data_ErB4
_symmetry_space_group_name_H-M   'P 1'
_cell_length_a   3.99707900
_cell_length_b   7.06972800
_cell_length_c   7.06972800
_cell_angle_alpha   90.00000000
_cell_angle_beta   90.00000000
_cell_angle_gamma   90.00000000
_symmetry_Int_Tables_number   1
_chemical_formula_structural   ErB4
_chemical_formula_sum   'Er4 B16'
_cell_volume   199.77822132
_cell_formula_units_Z   4
loop_
 _symmetry_equiv_pos_site_id
 _symmetry_equiv_pos_as_xyz
  1  'x, y, z'
loop_
 _atom_site_type_symbol
 _atom_site_label
 _atom_site_symmetry_multiplicity
 _atom_site_fract_x
 _atom_site_fract_y
 _atom_site_fract_z
 _atom_site_occupancy
  Er  Er0  1  1.00000000  0.18179300  0.68179300  1.0
  Er  Er1  1  1.00000000  0.68179300  0.81820700  1.0
  Er  Er2  1  1.00000000  0.31820700  0.18179300  1.0
  Er  Er3  1  1.00000000  0.81820700  0.31820700  1.0
  B  B4  1  0.50000000  0.32348300  0.46128200  1.0
  B  B5  1  0.50000000  0.67651700  0.53871800  1.0
  B  B6  1  0.50000000  0.53871800  0.32348300  1.0
  B  B7  1  0.50000000  0.46128200  0.67651700  1.0
  B  B8  1  0.20263200  0.00000000  0.00000000  1.0
  B  B9  1  0.79736800  0.50000000  0.50000000  1.0
  B  B10  1  0.79736800  0.00000000  0.00000000  1.0
  B  B11  1  0.20263200  0.50000000  0.50000000  1.0
  B  B12  1  0.50000000  0.58690300  0.08690300  1.0
  B  B13  1  0.50000000  0.08690300  0.41309700  1.0
  B  B14  1  0.50000000  0.91309700  0.58690300  1.0
  B  B15  1  0.50000000  0.41309700  0.91309700  1.0
  B  B16  1  0.50000000  0.03871800  0.17651700  1.0
  B  B17  1  0.50000000  0.17651700  0.96128200  1.0
  B  B18  1  0.50000000  0.82348300  0.03871800  1.0
  B  B19  1  0.50000000  0.96128200  0.82348300  1.0
