# generated using pymatgen
data_ErMgTl
_symmetry_space_group_name_H-M   'P 1'
_cell_length_a   4.59557400
_cell_length_b   7.57765000
_cell_length_c   7.57764965
_cell_angle_alpha   120.00000151
_cell_angle_beta   90.00000000
_cell_angle_gamma   90.00000000
_symmetry_Int_Tables_number   1
_chemical_formula_structural   ErMgTl
_chemical_formula_sum   'Er3 Mg3 Tl3'
_cell_volume   228.52801774
_cell_formula_units_Z   3
loop_
 _symmetry_equiv_pos_site_id
 _symmetry_equiv_pos_as_xyz
  1  'x, y, z'
loop_
 _atom_site_type_symbol
 _atom_site_label
 _atom_site_symmetry_multiplicity
 _atom_site_fract_x
 _atom_site_fract_y
 _atom_site_fract_z
 _atom_site_occupancy
  Er  Er0  1  1.00000000  0.41980700  0.41980700  1.0
  Er  Er1  1  0.00000000  1.00000000  0.58019300  1.0
  Er  Er2  1  1.00000000  0.58019300  1.00000000  1.0
  Mg  Mg3  1  0.50000000  0.75271800  0.75271800  1.0
  Mg  Mg4  1  0.50000000  0.00000000  0.24728200  1.0
  Mg  Mg5  1  0.50000000  0.24728200  1.00000000  1.0
  Tl  Tl6  1  0.50000000  0.66666667  0.33333333  1.0
  Tl  Tl7  1  0.50000000  0.33333333  0.66666667  1.0
  Tl  Tl8  1  0.00000000  0.00000000  0.00000000  1.0
