# generated using pymatgen
data_ErNbO4
_symmetry_space_group_name_H-M   'P 1'
_cell_length_a   5.13049585
_cell_length_b   5.29908154
_cell_length_c   6.56606741
_cell_angle_alpha   112.16369292
_cell_angle_beta   111.31857539
_cell_angle_gamma   93.85499047
_symmetry_Int_Tables_number   1
_chemical_formula_structural   ErNbO4
_chemical_formula_sum   'Er2 Nb2 O8'
_cell_volume   149.62453533
_cell_formula_units_Z   2
loop_
 _symmetry_equiv_pos_site_id
 _symmetry_equiv_pos_as_xyz
  1  'x, y, z'
loop_
 _atom_site_type_symbol
 _atom_site_label
 _atom_site_symmetry_multiplicity
 _atom_site_fract_x
 _atom_site_fract_y
 _atom_site_fract_z
 _atom_site_occupancy
  Er  Er0  1  0.62205700  0.37205700  0.74411400  1.0
  Er  Er1  1  0.37794300  0.62794300  0.25588600  1.0
  Nb  Nb2  1  0.14077300  0.89077300  0.78154600  1.0
  Nb  Nb3  1  0.85922700  0.10922700  0.21845400  1.0
  O  O4  1  0.01357400  0.21937300  0.93520900  1.0
  O  O5  1  0.42163500  0.71583600  0.93520900  1.0
  O  O6  1  0.98642600  0.78062700  0.06479100  1.0
  O  O7  1  0.57836500  0.28416400  0.06479100  1.0
  O  O8  1  0.78589500  0.62587100  0.57727400  1.0
  O  O9  1  0.29137900  0.95140300  0.57727400  1.0
  O  O10  1  0.21410500  0.37412900  0.42272600  1.0
  O  O11  1  0.70862100  0.04859700  0.42272600  1.0
