# generated using pymatgen
data_ErNiGe2
_symmetry_space_group_name_H-M   'P 1'
_cell_length_a   4.14547600
_cell_length_b   8.50355800
_cell_length_c   9.26389293
_cell_angle_alpha   117.32017656
_cell_angle_beta   102.92901623
_cell_angle_gamma   90.00000002
_symmetry_Int_Tables_number   1
_chemical_formula_structural   ErNiGe2
_chemical_formula_sum   'Er4 Ni4 Ge8'
_cell_volume   280.78679219
_cell_formula_units_Z   4
loop_
 _symmetry_equiv_pos_site_id
 _symmetry_equiv_pos_as_xyz
  1  'x, y, z'
loop_
 _atom_site_type_symbol
 _atom_site_label
 _atom_site_symmetry_multiplicity
 _atom_site_fract_x
 _atom_site_fract_y
 _atom_site_fract_z
 _atom_site_occupancy
  Er  Er0  1  0.79599200  0.29599200  0.59198400  1.0
  Er  Er1  1  0.20400800  0.70400800  0.40801600  1.0
  Er  Er2  1  1.00000000  0.74024400  1.00000000  1.0
  Er  Er3  1  0.00000000  0.25975600  0.00000000  1.0
  Ni  Ni4  1  0.64768500  0.39870700  0.29537000  1.0
  Ni  Ni5  1  0.64768500  0.89666300  0.29537000  1.0
  Ni  Ni6  1  0.35231500  0.10333700  0.70463000  1.0
  Ni  Ni7  1  0.35231500  0.60129300  0.70463000  1.0
  Ge  Ge8  1  0.19611800  0.03863400  0.39223600  1.0
  Ge  Ge9  1  0.80388200  0.64639800  0.60776400  1.0
  Ge  Ge10  1  0.57957800  0.07957800  0.15915600  1.0
  Ge  Ge11  1  0.42296300  0.42296300  0.84592600  1.0
  Ge  Ge12  1  0.42042200  0.92042200  0.84084400  1.0
  Ge  Ge13  1  0.80388200  0.96136600  0.60776400  1.0
  Ge  Ge14  1  0.19611800  0.35360200  0.39223600  1.0
  Ge  Ge15  1  0.57703700  0.57703700  0.15407400  1.0
