# generated using pymatgen
data_Eu2B5Os3
_symmetry_space_group_name_H-M   'P 1'
_cell_length_a   4.07412000
_cell_length_b   5.74519979
_cell_length_c   6.96115718
_cell_angle_alpha   78.28501728
_cell_angle_beta   72.98438126
_cell_angle_gamma   69.23307221
_symmetry_Int_Tables_number   1
_chemical_formula_structural   Eu2B5Os3
_chemical_formula_sum   'Eu2 B5 Os3'
_cell_volume   144.78113407
_cell_formula_units_Z   1
loop_
 _symmetry_equiv_pos_site_id
 _symmetry_equiv_pos_as_xyz
  1  'x, y, z'
loop_
 _atom_site_type_symbol
 _atom_site_label
 _atom_site_symmetry_multiplicity
 _atom_site_fract_x
 _atom_site_fract_y
 _atom_site_fract_z
 _atom_site_occupancy
  Eu  Eu0  1  0.94342200  0.43778000  0.23551000  1.0
  Eu  Eu1  1  0.61671200  0.56222000  0.76449000  1.0
  B  B2  1  0.27419500  0.50000000  0.50000000  1.0
  B  B3  1  0.63638400  0.97881600  0.31243500  1.0
  B  B4  1  0.53169000  0.06469400  0.87921700  1.0
  B  B5  1  0.92763500  0.02118400  0.68756500  1.0
  B  B6  1  0.47560100  0.93530600  0.12078300  1.0
  Os  Os7  1  0.39926400  0.13776200  0.59549900  1.0
  Os  Os8  1  0.99757300  0.00000000  1.00000000  1.0
  Os  Os9  1  0.13252500  0.86223800  0.40450100  1.0
