# generated using pymatgen
data_Eu3Al2O7
_symmetry_space_group_name_H-M   'P 1'
_cell_length_a   3.75492000
_cell_length_b   3.75492000
_cell_length_c   10.25582352
_cell_angle_alpha   100.54821163
_cell_angle_beta   100.54821163
_cell_angle_gamma   90.00000000
_symmetry_Int_Tables_number   1
_chemical_formula_structural   Eu3Al2O7
_chemical_formula_sum   'Eu3 Al2 O7'
_cell_volume   139.67129293
_cell_formula_units_Z   1
loop_
 _symmetry_equiv_pos_site_id
 _symmetry_equiv_pos_as_xyz
  1  'x, y, z'
loop_
 _atom_site_type_symbol
 _atom_site_label
 _atom_site_symmetry_multiplicity
 _atom_site_fract_x
 _atom_site_fract_y
 _atom_site_fract_z
 _atom_site_occupancy
  Eu  Eu0  1  0.31764300  0.31764300  0.63528600  1.0
  Eu  Eu1  1  0.68235700  0.68235700  0.36471400  1.0
  Eu  Eu2  1  0.50000000  0.50000000  0.00000000  1.0
  Al  Al3  1  0.09557100  0.09557100  0.19114200  1.0
  Al  Al4  1  0.90442900  0.90442900  0.80885800  1.0
  O  O5  1  0.59721600  0.09721600  0.19443200  1.0
  O  O6  1  0.40278400  0.90278400  0.80556800  1.0
  O  O7  1  0.09721600  0.59721600  0.19443200  1.0
  O  O8  1  0.90278400  0.40278400  0.80556800  1.0
  O  O9  1  0.19808300  0.19808300  0.39616600  1.0
  O  O10  1  0.80191700  0.80191700  0.60383400  1.0
  O  O11  1  0.00000000  0.00000000  0.00000000  1.0
