# generated using pymatgen
data_Eu3Si4
_symmetry_space_group_name_H-M   'P 1'
_cell_length_a   3.96616400
_cell_length_b   4.55910600
_cell_length_c   9.64676049
_cell_angle_alpha   103.66840935
_cell_angle_beta   101.86285284
_cell_angle_gamma   89.99999998
_symmetry_Int_Tables_number   1
_chemical_formula_structural   Eu3Si4
_chemical_formula_sum   'Eu3 Si4'
_cell_volume   165.65768492
_cell_formula_units_Z   1
loop_
 _symmetry_equiv_pos_site_id
 _symmetry_equiv_pos_as_xyz
  1  'x, y, z'
loop_
 _atom_site_type_symbol
 _atom_site_label
 _atom_site_symmetry_multiplicity
 _atom_site_fract_x
 _atom_site_fract_y
 _atom_site_fract_z
 _atom_site_occupancy
  Eu  Eu0  1  1.00000000  0.00411100  1.00000000  1.0
  Eu  Eu1  1  0.68489500  0.18657300  0.36979000  1.0
  Eu  Eu2  1  0.31510400  0.81678200  0.63020900  1.0
  Si  Si3  1  0.86173300  0.36064100  0.72346600  1.0
  Si  Si4  1  0.13826800  0.63717600  0.27653500  1.0
  Si  Si5  1  0.56467900  0.58403700  0.12935800  1.0
  Si  Si6  1  0.43532200  0.45468000  0.87064300  1.0
