# generated using pymatgen
data_Eu5Ge3
_symmetry_space_group_name_H-M   'P 1'
_cell_length_a   7.90709200
_cell_length_b   7.90709200
_cell_length_c   9.38072070
_cell_angle_alpha   114.92644384
_cell_angle_beta   114.92644383
_cell_angle_gamma   90.00000001
_symmetry_Int_Tables_number   1
_chemical_formula_structural   Eu5Ge3
_chemical_formula_sum   'Eu10 Ge6'
_cell_volume   470.94074457
_cell_formula_units_Z   2
loop_
 _symmetry_equiv_pos_site_id
 _symmetry_equiv_pos_as_xyz
  1  'x, y, z'
loop_
 _atom_site_type_symbol
 _atom_site_label
 _atom_site_symmetry_multiplicity
 _atom_site_fract_x
 _atom_site_fract_y
 _atom_site_fract_z
 _atom_site_occupancy
  Eu  Eu0  1  0.53124400  0.67875900  0.71000300  1.0
  Eu  Eu1  1  0.17875900  0.03124400  0.71000300  1.0
  Eu  Eu2  1  0.03124400  0.53124400  0.71000300  1.0
  Eu  Eu3  1  0.67875900  0.17875900  0.71000300  1.0
  Eu  Eu4  1  0.46875600  0.32124100  0.28999700  1.0
  Eu  Eu5  1  0.82124100  0.96875600  0.28999700  1.0
  Eu  Eu6  1  0.96875600  0.46875600  0.28999700  1.0
  Eu  Eu7  1  0.32124100  0.82124100  0.28999700  1.0
  Eu  Eu8  1  0.50000000  0.50000000  0.00000000  1.0
  Eu  Eu9  1  0.00000000  0.00000000  0.00000000  1.0
  Ge  Ge10  1  0.88426400  0.61573600  0.00000000  1.0
  Ge  Ge11  1  0.11573600  0.38426400  1.00000000  1.0
  Ge  Ge12  1  0.38426400  0.88426400  1.00000000  1.0
  Ge  Ge13  1  0.61573600  0.11573600  0.00000000  1.0
  Ge  Ge14  1  0.25000000  0.25000000  0.50000000  1.0
  Ge  Ge15  1  0.75000000  0.75000000  0.50000000  1.0
