# generated using pymatgen
data_Eu5Si3
_symmetry_space_group_name_H-M   'P 1'
_cell_length_a   7.79951400
_cell_length_b   7.79951400
_cell_length_c   9.30015500
_cell_angle_alpha   114.79177231
_cell_angle_beta   114.79177230
_cell_angle_gamma   90.00000001
_symmetry_Int_Tables_number   1
_chemical_formula_structural   Eu5Si3
_chemical_formula_sum   'Eu10 Si6'
_cell_volume   455.53967355
_cell_formula_units_Z   2
loop_
 _symmetry_equiv_pos_site_id
 _symmetry_equiv_pos_as_xyz
  1  'x, y, z'
loop_
 _atom_site_type_symbol
 _atom_site_label
 _atom_site_symmetry_multiplicity
 _atom_site_fract_x
 _atom_site_fract_y
 _atom_site_fract_z
 _atom_site_occupancy
  Eu  Eu0  1  0.53288700  0.67741000  0.71029700  1.0
  Eu  Eu1  1  0.17741100  0.03288800  0.71029900  1.0
  Eu  Eu2  1  0.03288700  0.53288700  0.71029800  1.0
  Eu  Eu3  1  0.67741100  0.17741100  0.71029800  1.0
  Eu  Eu4  1  0.46711300  0.32259000  0.28970300  1.0
  Eu  Eu5  1  0.82258900  0.96711200  0.28970100  1.0
  Eu  Eu6  1  0.96711300  0.46711300  0.28970200  1.0
  Eu  Eu7  1  0.32258900  0.82258900  0.28970200  1.0
  Eu  Eu8  1  0.50000000  0.50000000  0.00000000  1.0
  Eu  Eu9  1  0.00000000  0.00000000  0.00000000  1.0
  Si  Si10  1  0.88955700  0.61044300  0.00000000  1.0
  Si  Si11  1  0.11044300  0.38955700  1.00000000  1.0
  Si  Si12  1  0.38955700  0.88955700  1.00000000  1.0
  Si  Si13  1  0.61044300  0.11044300  0.00000000  1.0
  Si  Si14  1  0.25000000  0.25000000  0.50000000  1.0
  Si  Si15  1  0.75000000  0.75000000  0.50000000  1.0
