# generated using pymatgen
data_EuAgSn
_symmetry_space_group_name_H-M   'P 1'
_cell_length_a   4.91049000
_cell_length_b   6.23729351
_cell_length_c   6.29035579
_cell_angle_alpha   77.16324843
_cell_angle_beta   67.02565383
_cell_angle_gamma   66.81885086
_symmetry_Int_Tables_number   1
_chemical_formula_structural   EuAgSn
_chemical_formula_sum   'Eu2 Ag2 Sn2'
_cell_volume   162.52386051
_cell_formula_units_Z   2
loop_
 _symmetry_equiv_pos_site_id
 _symmetry_equiv_pos_as_xyz
  1  'x, y, z'
loop_
 _atom_site_type_symbol
 _atom_site_label
 _atom_site_symmetry_multiplicity
 _atom_site_fract_x
 _atom_site_fract_y
 _atom_site_fract_z
 _atom_site_occupancy
  Eu  Eu0  1  0.53549400  0.21766500  0.71134700  1.0
  Eu  Eu1  1  0.46450600  0.78233500  0.28865300  1.0
  Ag  Ag2  1  0.16466500  0.38174800  0.28892200  1.0
  Ag  Ag3  1  0.83533500  0.61825200  0.71107800  1.0
  Sn  Sn4  1  0.83314800  0.21495500  0.11874900  1.0
  Sn  Sn5  1  0.16685200  0.78504500  0.88125100  1.0
