# generated using pymatgen
data_EuGa3Ni2
_symmetry_space_group_name_H-M   'P 1'
_cell_length_a   5.15288200
_cell_length_b   6.38058268
_cell_length_c   6.38058268
_cell_angle_alpha   104.42070763
_cell_angle_beta   90.00000000
_cell_angle_gamma   90.00000000
_symmetry_Int_Tables_number   1
_chemical_formula_structural   EuGa3Ni2
_chemical_formula_sum   'Eu2 Ga6 Ni4'
_cell_volume   203.17368716
_cell_formula_units_Z   2
loop_
 _symmetry_equiv_pos_site_id
 _symmetry_equiv_pos_as_xyz
  1  'x, y, z'
loop_
 _atom_site_type_symbol
 _atom_site_label
 _atom_site_symmetry_multiplicity
 _atom_site_fract_x
 _atom_site_fract_y
 _atom_site_fract_z
 _atom_site_occupancy
  Eu  Eu0  1  0.75000000  0.66167700  0.66167700  1.0
  Eu  Eu1  1  0.25000000  0.33832300  0.33832300  1.0
  Ga  Ga2  1  0.75000000  0.06103100  0.06103100  1.0
  Ga  Ga3  1  0.25000000  0.93896900  0.93896900  1.0
  Ga  Ga4  1  0.75000000  0.47440600  0.09114600  1.0
  Ga  Ga5  1  0.25000000  0.90885400  0.52559400  1.0
  Ga  Ga6  1  0.25000000  0.52559400  0.90885400  1.0
  Ga  Ga7  1  0.75000000  0.09114600  0.47440600  1.0
  Ni  Ni8  1  0.50000000  0.79871400  0.20128600  1.0
  Ni  Ni9  1  0.00000000  0.79871400  0.20128600  1.0
  Ni  Ni10  1  0.50000000  0.20128600  0.79871400  1.0
  Ni  Ni11  1  1.00000000  0.20128600  0.79871400  1.0
