# generated using pymatgen
data_EuGe3
_symmetry_space_group_name_H-M   'P 1'
_cell_length_a   5.13129300
_cell_length_b   6.27945800
_cell_length_c   6.27945874
_cell_angle_alpha   60.00000388
_cell_angle_beta   90.00000000
_cell_angle_gamma   90.00000000
_symmetry_Int_Tables_number   1
_chemical_formula_structural   EuGe3
_chemical_formula_sum   'Eu2 Ge6'
_cell_volume   175.22732615
_cell_formula_units_Z   2
loop_
 _symmetry_equiv_pos_site_id
 _symmetry_equiv_pos_as_xyz
  1  'x, y, z'
loop_
 _atom_site_type_symbol
 _atom_site_label
 _atom_site_symmetry_multiplicity
 _atom_site_fract_x
 _atom_site_fract_y
 _atom_site_fract_z
 _atom_site_occupancy
  Eu  Eu0  1  0.25000000  0.33333333  0.33333333  1.0
  Eu  Eu1  1  0.75000000  0.66666667  0.66666667  1.0
  Ge  Ge2  1  0.75000000  0.14135800  0.71728400  1.0
  Ge  Ge3  1  0.75000000  0.71728400  0.14135800  1.0
  Ge  Ge4  1  0.75000000  0.14135800  0.14135800  1.0
  Ge  Ge5  1  0.25000000  0.85864200  0.28271600  1.0
  Ge  Ge6  1  0.25000000  0.28271600  0.85864200  1.0
  Ge  Ge7  1  0.25000000  0.85864200  0.85864200  1.0
