# generated using pymatgen
data_EuZnGe
_symmetry_space_group_name_H-M   'P 1'
_cell_length_a   4.35853600
_cell_length_b   6.14875243
_cell_length_c   6.14875243
_cell_angle_alpha   75.87907958
_cell_angle_beta   69.24182760
_cell_angle_gamma   69.24182760
_symmetry_Int_Tables_number   1
_chemical_formula_structural   EuZnGe
_chemical_formula_sum   'Eu2 Zn2 Ge2'
_cell_volume   142.75826366
_cell_formula_units_Z   2
loop_
 _symmetry_equiv_pos_site_id
 _symmetry_equiv_pos_as_xyz
  1  'x, y, z'
loop_
 _atom_site_type_symbol
 _atom_site_label
 _atom_site_symmetry_multiplicity
 _atom_site_fract_x
 _atom_site_fract_y
 _atom_site_fract_z
 _atom_site_occupancy
  Eu  Eu0  1  0.75041900  0.24958100  0.24958100  1.0
  Eu  Eu1  1  0.24958100  0.75041900  0.75041900  1.0
  Zn  Zn2  1  1.00000000  0.33257800  0.66742200  1.0
  Zn  Zn3  1  1.00000000  0.66742200  0.33257800  1.0
  Ge  Ge4  1  0.50000000  0.83209500  0.16790500  1.0
  Ge  Ge5  1  0.50000000  0.16790500  0.83209500  1.0
