# generated using pymatgen
data_Fe(NiSe2)2
_symmetry_space_group_name_H-M   'P 1'
_cell_length_a   3.58237400
_cell_length_b   6.20628435
_cell_length_c   6.31940055
_cell_angle_alpha   118.23908745
_cell_angle_beta   106.46577470
_cell_angle_gamma   90.00000000
_symmetry_Int_Tables_number   1
_chemical_formula_structural   Fe(NiSe2)2
_chemical_formula_sum   'Fe1 Ni2 Se4'
_cell_volume   117.19708895
_cell_formula_units_Z   1
loop_
 _symmetry_equiv_pos_site_id
 _symmetry_equiv_pos_as_xyz
  1  'x, y, z'
loop_
 _atom_site_type_symbol
 _atom_site_label
 _atom_site_symmetry_multiplicity
 _atom_site_fract_x
 _atom_site_fract_y
 _atom_site_fract_z
 _atom_site_occupancy
  Fe  Fe0  1  0.00000000  0.00000000  0.00000000  1.0
  Ni  Ni1  1  0.73954200  0.71155000  0.47908400  1.0
  Ni  Ni2  1  0.26045800  0.28845000  0.52091600  1.0
  Se  Se3  1  0.63548200  0.97648900  0.27096400  1.0
  Se  Se4  1  0.36451800  0.02351100  0.72903600  1.0
  Se  Se5  1  0.88515500  0.55006300  0.77031000  1.0
  Se  Se6  1  0.11484500  0.44993700  0.22969000  1.0
