# generated using pymatgen
data_Fe2PO5
_symmetry_space_group_name_H-M   'P 1'
_cell_length_a   5.41845200
_cell_length_b   5.41845200
_cell_length_c   7.39922607
_cell_angle_alpha   111.47836761
_cell_angle_beta   111.47836760
_cell_angle_gamma   90.00000001
_symmetry_Int_Tables_number   1
_chemical_formula_structural   Fe2PO5
_chemical_formula_sum   'Fe4 P2 O10'
_cell_volume   185.84602596
_cell_formula_units_Z   2
loop_
 _symmetry_equiv_pos_site_id
 _symmetry_equiv_pos_as_xyz
  1  'x, y, z'
loop_
 _atom_site_type_symbol
 _atom_site_label
 _atom_site_symmetry_multiplicity
 _atom_site_fract_x
 _atom_site_fract_y
 _atom_site_fract_z
 _atom_site_occupancy
  Fe  Fe0  1  0.87500000  0.62500000  0.25000000  1.0
  Fe  Fe1  1  0.37500000  0.12500000  0.75000000  1.0
  Fe  Fe2  1  0.37500000  0.62500000  0.75000000  1.0
  Fe  Fe3  1  0.37500000  0.62500000  0.25000000  1.0
  P  P4  1  0.00000000  0.00000000  0.00000000  1.0
  P  P5  1  0.75000000  0.25000000  0.50000000  1.0
  O  O6  1  0.25000000  0.75000000  0.50000000  1.0
  O  O7  1  0.50000000  0.50000000  0.00000000  1.0
  O  O8  1  0.69482600  0.93246700  0.86493500  1.0
  O  O9  1  0.06753200  0.30517300  0.13506400  1.0
  O  O10  1  0.06753200  0.82989100  0.13506500  1.0
  O  O11  1  0.05517400  0.31753300  0.63506500  1.0
  O  O12  1  0.17010900  0.93246800  0.86493600  1.0
  O  O13  1  0.68246800  0.42010900  0.36493500  1.0
  O  O14  1  0.68246800  0.94482700  0.36493600  1.0
  O  O15  1  0.57989100  0.31753200  0.63506400  1.0
