# generated using pymatgen
data_Fe2Pb3WO9
_symmetry_space_group_name_H-M   'P 1'
_cell_length_a   5.68682497
_cell_length_b   5.68687942
_cell_length_c   6.98360807
_cell_angle_alpha   89.99750790
_cell_angle_beta   90.00251535
_cell_angle_gamma   120.00118868
_symmetry_Int_Tables_number   1
_chemical_formula_structural   Fe2Pb3WO9
_chemical_formula_sum   'Fe2 Pb3 W1 O9'
_cell_volume   195.59113587
_cell_formula_units_Z   1
loop_
 _symmetry_equiv_pos_site_id
 _symmetry_equiv_pos_as_xyz
  1  'x, y, z'
loop_
 _atom_site_type_symbol
 _atom_site_label
 _atom_site_symmetry_multiplicity
 _atom_site_fract_x
 _atom_site_fract_y
 _atom_site_fract_z
 _atom_site_occupancy
  Fe  Fe0  1  0.66666667  0.33333333  0.83334500  1.0
  Fe  Fe1  1  0.00000300  0.00001600  0.50000700  1.0
  Pb  Pb2  1  0.33360100  0.66681500  0.66659900  1.0
  Pb  Pb3  1  0.66666667  0.33333333  0.37666200  1.0
  Pb  Pb4  1  0.99992700  0.99992700  0.95667100  1.0
  W  W5  1  0.33322700  0.66662300  0.16664900  1.0
  O  O6  1  0.83331667  0.66666667  0.66666667  1.0
  O  O7  1  0.33334500  0.16668300  0.66666667  1.0
  O  O8  1  0.83328267  0.16661600  0.66666667  1.0
  O  O9  1  0.17213500  0.34421600  0.32994300  1.0
  O  O10  1  0.49456100  0.98910200  0.00337900  1.0
  O  O11  1  0.65573900  0.82786500  0.32996300  1.0
  O  O12  1  0.01087300  0.50544600  0.00342300  1.0
  O  O13  1  0.17210900  0.82786700  0.32995100  1.0
  O  O14  1  0.49456900  0.50548900  0.00339100  1.0
