# generated using pymatgen
data_Fe2Si2BiO9
_symmetry_space_group_name_H-M   'P 1'
_cell_length_a   5.21832123
_cell_length_b   5.21832123
_cell_length_c   8.04307475
_cell_angle_alpha   96.12860004
_cell_angle_beta   96.12860004
_cell_angle_gamma   118.82802911
_symmetry_Int_Tables_number   1
_chemical_formula_structural   Fe2Si2BiO9
_chemical_formula_sum   'Fe2 Si2 Bi1 O9'
_cell_volume   187.60605193
_cell_formula_units_Z   1
loop_
 _symmetry_equiv_pos_site_id
 _symmetry_equiv_pos_as_xyz
  1  'x, y, z'
loop_
 _atom_site_type_symbol
 _atom_site_label
 _atom_site_symmetry_multiplicity
 _atom_site_fract_x
 _atom_site_fract_y
 _atom_site_fract_z
 _atom_site_occupancy
  Fe  Fe0  1  0.67330100  0.34710400  0.00100100  1.0
  Fe  Fe1  1  0.34710400  0.67330100  0.00100100  1.0
  Si  Si2  1  0.47380400  0.13149000  0.35825300  1.0
  Si  Si3  1  0.13149000  0.47380400  0.35825300  1.0
  Bi  Bi4  1  0.91812400  0.91812400  0.72975200  1.0
  O  O5  1  0.60962000  0.97225500  0.86644900  1.0
  O  O6  1  0.97225500  0.60962000  0.86644900  1.0
  O  O7  1  0.31630900  0.31630900  0.85832800  1.0
  O  O8  1  0.42757500  0.05091600  0.15263200  1.0
  O  O9  1  0.05091600  0.42757500  0.15263200  1.0
  O  O10  1  0.65826300  0.65826300  0.13504600  1.0
  O  O11  1  0.32616000  0.83002900  0.44322600  1.0
  O  O12  1  0.83002900  0.32616000  0.44322600  1.0
  O  O13  1  0.32705000  0.32705000  0.42775100  1.0
