# generated using pymatgen
data_Fe5SnO8
_symmetry_space_group_name_H-M   'P 1'
_cell_length_a   6.11368159
_cell_length_b   6.11368159
_cell_length_c   6.22444849
_cell_angle_alpha   60.58694415
_cell_angle_beta   60.58694415
_cell_angle_gamma   60.00000438
_symmetry_Int_Tables_number   1
_chemical_formula_structural   Fe5SnO8
_chemical_formula_sum   'Fe5 Sn1 O8'
_cell_volume   165.95410534
_cell_formula_units_Z   1
loop_
 _symmetry_equiv_pos_site_id
 _symmetry_equiv_pos_as_xyz
  1  'x, y, z'
loop_
 _atom_site_type_symbol
 _atom_site_label
 _atom_site_symmetry_multiplicity
 _atom_site_fract_x
 _atom_site_fract_y
 _atom_site_fract_z
 _atom_site_occupancy
  Fe  Fe0  1  0.87055700  0.87055700  0.38832900  1.0
  Fe  Fe1  1  0.12944300  0.12944300  0.61167100  1.0
  Fe  Fe2  1  0.50000000  1.00000000  0.00000000  1.0
  Fe  Fe3  1  0.00000000  0.50000000  1.00000000  1.0
  Fe  Fe4  1  0.50000000  0.50000000  1.00000000  1.0
  Sn  Sn5  1  0.50000000  0.50000000  0.50000000  1.0
  O  O6  1  0.25870300  0.25870300  0.74351400  1.0
  O  O7  1  0.73908000  0.25870300  0.74351400  1.0
  O  O8  1  0.25870300  0.73908000  0.74351400  1.0
  O  O9  1  0.25342800  0.25342800  0.23971600  1.0
  O  O10  1  0.74657200  0.74657200  0.76028400  1.0
  O  O11  1  0.74129700  0.26092000  0.25648600  1.0
  O  O12  1  0.26092000  0.74129700  0.25648600  1.0
  O  O13  1  0.74129700  0.74129700  0.25648600  1.0
