# generated using pymatgen
data_FeHO2
_symmetry_space_group_name_H-M   'P 1'
_cell_length_a   3.07196434
_cell_length_b   3.07214503
_cell_length_c   4.79544382
_cell_angle_alpha   90.16323102
_cell_angle_beta   90.13714332
_cell_angle_gamma   60.19158525
_symmetry_Int_Tables_number   1
_chemical_formula_structural   FeHO2
_chemical_formula_sum   'Fe1 H1 O2'
_cell_volume   39.26905730
_cell_formula_units_Z   1
loop_
 _symmetry_equiv_pos_site_id
 _symmetry_equiv_pos_as_xyz
  1  'x, y, z'
loop_
 _atom_site_type_symbol
 _atom_site_label
 _atom_site_symmetry_multiplicity
 _atom_site_fract_x
 _atom_site_fract_y
 _atom_site_fract_z
 _atom_site_occupancy
  Fe  Fe0  1  0.99860650  0.99861025  0.99859975  1.0
  H  H4  1  0.66749875  0.66703900  0.55221025  1.0
  O  O8  1  0.33444875  0.33470475  0.18264000  1.0
  O  O12  1  0.66614550  0.66614475  0.75641125  1.0
