# generated using pymatgen
data_FeSbO4
_symmetry_space_group_name_H-M   'P 1'
_cell_length_a   5.63930014
_cell_length_b   5.63929875
_cell_length_c   5.63929707
_cell_angle_alpha   72.14056156
_cell_angle_beta   72.13323650
_cell_angle_gamma   112.73790409
_symmetry_Int_Tables_number   1
_chemical_formula_structural   FeSbO4
_chemical_formula_sum   'Fe2 Sb2 O8'
_cell_volume   137.71638760
_cell_formula_units_Z   2
loop_
 _symmetry_equiv_pos_site_id
 _symmetry_equiv_pos_as_xyz
  1  'x, y, z'
loop_
 _atom_site_type_symbol
 _atom_site_label
 _atom_site_symmetry_multiplicity
 _atom_site_fract_x
 _atom_site_fract_y
 _atom_site_fract_z
 _atom_site_occupancy
  Fe  Fe0  1  0.49020000  0.49020000  1.00000000  1.0
  Fe  Fe1  1  0.24021400  0.74021400  0.50000100  1.0
  Sb  Sb2  1  0.75741400  0.25741400  0.50000000  1.0
  Sb  Sb3  1  0.00740900  0.00741000  0.00000000  1.0
  O  O4  1  0.24620000  0.04964100  0.19655900  1.0
  O  O5  1  0.79964800  0.49620800  0.69656000  1.0
  O  O6  1  0.19276900  0.49620900  0.30344000  1.0
  O  O7  1  0.24620000  0.44276000  0.80344000  1.0
  O  O8  1  0.75501600  0.56339200  0.19162400  1.0
  O  O9  1  0.31333700  0.00495600  0.69162000  1.0
  O  O10  1  0.69657600  0.00495700  0.30838000  1.0
  O  O11  1  0.75501600  0.94664000  0.80837600  1.0
