# generated using pymatgen
data_Ga2NiO4
_symmetry_space_group_name_H-M   'P 1'
_cell_length_a   5.92213529
_cell_length_b   5.92213529
_cell_length_c   5.93513056
_cell_angle_alpha   60.07239778
_cell_angle_beta   60.07239778
_cell_angle_gamma   60.00000790
_symmetry_Int_Tables_number   1
_chemical_formula_structural   Ga2NiO4
_chemical_formula_sum   'Ga4 Ni2 O8'
_cell_volume   147.34870844
_cell_formula_units_Z   2
loop_
 _symmetry_equiv_pos_site_id
 _symmetry_equiv_pos_as_xyz
  1  'x, y, z'
loop_
 _atom_site_type_symbol
 _atom_site_label
 _atom_site_symmetry_multiplicity
 _atom_site_fract_x
 _atom_site_fract_y
 _atom_site_fract_z
 _atom_site_occupancy
  Ga  Ga0  1  0.62735300  0.62735300  0.62799200  1.0
  Ga  Ga1  1  0.11730200  0.62735300  0.62799200  1.0
  Ga  Ga2  1  0.24583600  0.24583600  0.26249200  1.0
  Ga  Ga3  1  0.62735300  0.11730200  0.62799200  1.0
  Ni  Ni4  1  0.00209600  0.00209600  0.99371200  1.0
  Ni  Ni5  1  0.62679400  0.62679400  0.11961800  1.0
  O  O6  1  0.37872700  0.85215900  0.39038700  1.0
  O  O7  1  0.38020500  0.38020500  0.85938500  1.0
  O  O8  1  0.87097300  0.87097300  0.85148000  1.0
  O  O9  1  0.86492400  0.86492400  0.40522800  1.0
  O  O10  1  0.40657400  0.87097300  0.85148000  1.0
  O  O11  1  0.87097300  0.40657400  0.85148000  1.0
  O  O12  1  0.85215900  0.37872700  0.39038700  1.0
  O  O13  1  0.37872700  0.37872700  0.39038700  1.0
