# generated using pymatgen
data_Ga2PbO4
_symmetry_space_group_name_H-M   'P 1'
_cell_length_a   5.32934600
_cell_length_b   5.45292257
_cell_length_c   8.70627300
_cell_angle_alpha   90.00000000
_cell_angle_beta   90.00000000
_cell_angle_gamma   119.25312160
_symmetry_Int_Tables_number   1
_chemical_formula_structural   Ga2PbO4
_chemical_formula_sum   'Ga4 Pb2 O8'
_cell_volume   220.74238229
_cell_formula_units_Z   2
loop_
 _symmetry_equiv_pos_site_id
 _symmetry_equiv_pos_as_xyz
  1  'x, y, z'
loop_
 _atom_site_type_symbol
 _atom_site_label
 _atom_site_symmetry_multiplicity
 _atom_site_fract_x
 _atom_site_fract_y
 _atom_site_fract_z
 _atom_site_occupancy
  Ga  Ga0  1  0.63504900  0.34500200  0.44752200  1.0
  Ga  Ga1  1  0.29004700  0.65499800  0.55247800  1.0
  Ga  Ga2  1  0.63504900  0.34500200  0.05247800  1.0
  Ga  Ga3  1  0.29004700  0.65499800  0.94752200  1.0
  Pb  Pb4  1  0.02979900  0.05732800  0.25000000  1.0
  Pb  Pb5  1  0.97247100  0.94267200  0.75000000  1.0
  O  O6  1  0.51390000  0.38251500  0.25000000  1.0
  O  O7  1  0.13138500  0.61748500  0.75000000  1.0
  O  O8  1  0.32340800  0.00000000  0.50000000  1.0
  O  O9  1  0.32340800  0.00000000  1.00000000  1.0
  O  O10  1  0.99279400  0.36617000  0.44096000  1.0
  O  O11  1  0.62662400  0.63383000  0.55904000  1.0
  O  O12  1  0.62662400  0.63383000  0.94096000  1.0
  O  O13  1  0.99279400  0.36617000  0.05904000  1.0
