# generated using pymatgen
data_Ga2Se3
_symmetry_space_group_name_H-M   'P 1'
_cell_length_a   3.90380400
_cell_length_b   5.78702400
_cell_length_c   6.86948340
_cell_angle_alpha   114.91115884
_cell_angle_beta   106.50750990
_cell_angle_gamma   89.99999999
_symmetry_Int_Tables_number   1
_chemical_formula_structural   Ga2Se3
_chemical_formula_sum   'Ga2 Se3'
_cell_volume   133.66682896
_cell_formula_units_Z   1
loop_
 _symmetry_equiv_pos_site_id
 _symmetry_equiv_pos_as_xyz
  1  'x, y, z'
loop_
 _atom_site_type_symbol
 _atom_site_label
 _atom_site_symmetry_multiplicity
 _atom_site_fract_x
 _atom_site_fract_y
 _atom_site_fract_z
 _atom_site_occupancy
  Ga  Ga0  1  0.66113700  0.66990900  0.32227400  1.0
  Ga  Ga1  1  0.33886300  0.34763500  0.67772600  1.0
  Se  Se2  1  0.16270300  0.40346700  0.32540500  1.0
  Se  Se3  1  0.83729800  0.07806200  0.67459600  1.0
  Se  Se4  1  0.50000000  0.75092600  1.00000000  1.0
