# generated using pymatgen
data_Ga3SiNi4
_symmetry_space_group_name_H-M   'P 1'
_cell_length_a   4.61005353
_cell_length_b   4.61005353
_cell_length_c   4.61005331
_cell_angle_alpha   90.91365587
_cell_angle_beta   90.91365587
_cell_angle_gamma   90.91365218
_symmetry_Int_Tables_number   1
_chemical_formula_structural   Ga3SiNi4
_chemical_formula_sum   'Ga3 Si1 Ni4'
_cell_volume   97.93781747
_cell_formula_units_Z   1
loop_
 _symmetry_equiv_pos_site_id
 _symmetry_equiv_pos_as_xyz
  1  'x, y, z'
loop_
 _atom_site_type_symbol
 _atom_site_label
 _atom_site_symmetry_multiplicity
 _atom_site_fract_x
 _atom_site_fract_y
 _atom_site_fract_z
 _atom_site_occupancy
  Ga  Ga0  1  0.84254600  0.65732600  0.34692100  1.0
  Ga  Ga1  1  0.34692100  0.84254600  0.65732600  1.0
  Ga  Ga2  1  0.65732600  0.34692100  0.84254600  1.0
  Si  Si3  1  0.15853900  0.15853900  0.15853900  1.0
  Ni  Ni4  1  0.86545600  0.86545600  0.86545600  1.0
  Ni  Ni5  1  0.14274600  0.34637200  0.64009400  1.0
  Ni  Ni6  1  0.64009400  0.14274600  0.34637200  1.0
  Ni  Ni7  1  0.34637200  0.64009400  0.14274600  1.0
