# generated using pymatgen
data_GaAgTeSe
_symmetry_space_group_name_H-M   'P 1'
_cell_length_a   6.20356800
_cell_length_b   6.29293400
_cell_length_c   7.34323963
_cell_angle_alpha   115.37144388
_cell_angle_beta   114.98619891
_cell_angle_gamma   90.00000001
_symmetry_Int_Tables_number   1
_chemical_formula_structural   GaAgTeSe
_chemical_formula_sum   'Ga2 Ag2 Te2 Se2'
_cell_volume   228.97371018
_cell_formula_units_Z   2
loop_
 _symmetry_equiv_pos_site_id
 _symmetry_equiv_pos_as_xyz
  1  'x, y, z'
loop_
 _atom_site_type_symbol
 _atom_site_label
 _atom_site_symmetry_multiplicity
 _atom_site_fract_x
 _atom_site_fract_y
 _atom_site_fract_z
 _atom_site_occupancy
  Ga  Ga0  1  0.11577000  0.86577000  0.23154000  1.0
  Ga  Ga1  1  0.38423000  0.63423000  0.76846000  1.0
  Ag  Ag2  1  0.62034800  0.37034800  0.24069600  1.0
  Ag  Ag3  1  0.87965200  0.12965200  0.75930400  1.0
  Te  Te4  1  0.01802100  0.75000000  0.50000000  1.0
  Te  Te5  1  0.48197900  0.25000000  0.50000000  1.0
  Se  Se6  1  0.25000000  0.53063600  1.00000000  1.0
  Se  Se7  1  0.75000000  0.96936400  0.00000000  1.0
