# generated using pymatgen
data_GaHg3AsSCl4
_symmetry_space_group_name_H-M   'P 1'
_cell_length_a   7.51812600
_cell_length_b   7.51812591
_cell_length_c   12.42827900
_cell_angle_alpha   90.00000000
_cell_angle_beta   90.00000000
_cell_angle_gamma   120.00000040
_symmetry_Int_Tables_number   1
_chemical_formula_structural   GaHg3AsSCl4
_chemical_formula_sum   'Ga2 Hg6 As2 S2 Cl8'
_cell_volume   608.36023485
_cell_formula_units_Z   2
loop_
 _symmetry_equiv_pos_site_id
 _symmetry_equiv_pos_as_xyz
  1  'x, y, z'
loop_
 _atom_site_type_symbol
 _atom_site_label
 _atom_site_symmetry_multiplicity
 _atom_site_fract_x
 _atom_site_fract_y
 _atom_site_fract_z
 _atom_site_occupancy
  Ga  Ga0  1  0.00000000  0.00000000  0.73906300  1.0
  Ga  Ga1  1  0.00000000  0.00000000  0.23906300  1.0
  Hg  Hg2  1  0.49832800  0.50167200  0.53299300  1.0
  Hg  Hg3  1  0.49832800  0.99665600  0.53299300  1.0
  Hg  Hg4  1  0.00334400  0.50167200  0.53299300  1.0
  Hg  Hg5  1  0.50167200  0.49832800  0.03299300  1.0
  Hg  Hg6  1  0.50167200  0.00334400  0.03299300  1.0
  Hg  Hg7  1  0.99665600  0.49832800  0.03299300  1.0
  As  As8  1  0.33333333  0.66666667  0.42570900  1.0
  As  As9  1  0.66666667  0.33333333  0.92570900  1.0
  S  S10  1  0.66666667  0.33333333  0.62435000  1.0
  S  S11  1  0.33333333  0.66666667  0.12435000  1.0
  Cl  Cl12  1  0.67730400  0.83865200  0.79146700  1.0
  Cl  Cl13  1  0.16134800  0.83865200  0.79146700  1.0
  Cl  Cl14  1  0.16134800  0.32269600  0.79146700  1.0
  Cl  Cl15  1  0.32269600  0.16134800  0.29146700  1.0
  Cl  Cl16  1  0.83865200  0.16134800  0.29146700  1.0
  Cl  Cl17  1  0.83865200  0.67730400  0.29146700  1.0
  Cl  Cl18  1  0.00000000  0.00000000  0.55963600  1.0
  Cl  Cl19  1  0.00000000  0.00000000  0.05963600  1.0
