# generated using pymatgen
data_GaSn3
_symmetry_space_group_name_H-M   'P 1'
_cell_length_a   5.51838300
_cell_length_b   6.58399800
_cell_length_c   6.58399754
_cell_angle_alpha   120.00000229
_cell_angle_beta   90.00000000
_cell_angle_gamma   90.00000000
_symmetry_Int_Tables_number   1
_chemical_formula_structural   GaSn3
_chemical_formula_sum   'Ga2 Sn6'
_cell_volume   207.16758850
_cell_formula_units_Z   2
loop_
 _symmetry_equiv_pos_site_id
 _symmetry_equiv_pos_as_xyz
  1  'x, y, z'
loop_
 _atom_site_type_symbol
 _atom_site_label
 _atom_site_symmetry_multiplicity
 _atom_site_fract_x
 _atom_site_fract_y
 _atom_site_fract_z
 _atom_site_occupancy
  Ga  Ga0  1  0.25000000  0.66666667  0.33333333  1.0
  Ga  Ga1  1  0.75000000  0.33333333  0.66666667  1.0
  Sn  Sn2  1  0.75000000  0.83087600  0.16912500  1.0
  Sn  Sn3  1  0.75000000  0.33824900  0.16912500  1.0
  Sn  Sn4  1  0.75000000  0.83087600  0.66175200  1.0
  Sn  Sn5  1  0.25000000  0.16912400  0.83087500  1.0
  Sn  Sn6  1  0.25000000  0.66175100  0.83087500  1.0
  Sn  Sn7  1  0.25000000  0.16912400  0.33824800  1.0
