# generated using pymatgen
data_Gd2Cr2C3
_symmetry_space_group_name_H-M   'P 1'
_cell_length_a   3.40306600
_cell_length_b   5.50321975
_cell_length_c   5.64620668
_cell_angle_alpha   104.50995368
_cell_angle_beta   90.00000000
_cell_angle_gamma   108.01034065
_symmetry_Int_Tables_number   1
_chemical_formula_structural   Gd2Cr2C3
_chemical_formula_sum   'Gd2 Cr2 C3'
_cell_volume   97.00722566
_cell_formula_units_Z   1
loop_
 _symmetry_equiv_pos_site_id
 _symmetry_equiv_pos_as_xyz
  1  'x, y, z'
loop_
 _atom_site_type_symbol
 _atom_site_label
 _atom_site_symmetry_multiplicity
 _atom_site_fract_x
 _atom_site_fract_y
 _atom_site_fract_z
 _atom_site_occupancy
  Gd  Gd0  1  0.60461700  0.20923400  0.81953300  1.0
  Gd  Gd1  1  0.39538300  0.79076600  0.18046700  1.0
  Cr  Cr2  1  0.84233000  0.68466000  0.60497100  1.0
  Cr  Cr3  1  0.15767000  0.31534000  0.39502900  1.0
  C  C4  1  0.00000000  0.00000000  0.50000000  1.0
  C  C5  1  0.28709700  0.57419400  0.72488000  1.0
  C  C6  1  0.71290300  0.42580600  0.27512000  1.0
