# generated using pymatgen
data_Gd2MnS4
_symmetry_space_group_name_H-M   'P 1'
_cell_length_a   7.22764769
_cell_length_b   7.22764769
_cell_length_c   7.22764769
_cell_angle_alpha   73.57981451
_cell_angle_beta   68.98205703
_cell_angle_gamma   111.01794297
_symmetry_Int_Tables_number   1
_chemical_formula_structural   Gd2MnS4
_chemical_formula_sum   'Gd4 Mn2 S8'
_cell_volume   290.03519290
_cell_formula_units_Z   2
loop_
 _symmetry_equiv_pos_site_id
 _symmetry_equiv_pos_as_xyz
  1  'x, y, z'
loop_
 _atom_site_type_symbol
 _atom_site_label
 _atom_site_symmetry_multiplicity
 _atom_site_fract_x
 _atom_site_fract_y
 _atom_site_fract_z
 _atom_site_occupancy
  Gd  Gd0  1  0.88169900  0.75669900  0.62500000  1.0
  Gd  Gd1  1  0.61830100  0.12500000  0.75669900  1.0
  Gd  Gd2  1  0.11830100  0.49330100  0.12500000  1.0
  Gd  Gd3  1  0.38169900  0.62500000  0.49330100  1.0
  Mn  Mn4  1  0.00000000  0.00000000  0.00000000  1.0
  Mn  Mn5  1  0.50000000  0.25000000  0.25000000  1.0
  S  S6  1  0.23253000  0.87145700  0.76018400  1.0
  S  S7  1  0.36835900  0.36107300  0.87145700  1.0
  S  S8  1  0.73253000  0.48981600  0.37854300  1.0
  S  S9  1  0.86835900  0.37854300  0.88892700  1.0
  S  S10  1  0.26747000  0.88892700  0.24271400  1.0
  S  S11  1  0.13164100  0.24271400  0.48981600  1.0
  S  S12  1  0.76747000  0.00728600  0.36107300  1.0
  S  S13  1  0.63164100  0.76018400  0.00728600  1.0
