# generated using pymatgen
data_GdAlZnGe2
_symmetry_space_group_name_H-M   'P 1'
_cell_length_a   4.21628600
_cell_length_b   4.21628532
_cell_length_c   6.86570100
_cell_angle_alpha   90.00000000
_cell_angle_beta   90.00000000
_cell_angle_gamma   120.00000534
_symmetry_Int_Tables_number   1
_chemical_formula_structural   GdAlZnGe2
_chemical_formula_sum   'Gd1 Al1 Zn1 Ge2'
_cell_volume   105.70013674
_cell_formula_units_Z   1
loop_
 _symmetry_equiv_pos_site_id
 _symmetry_equiv_pos_as_xyz
  1  'x, y, z'
loop_
 _atom_site_type_symbol
 _atom_site_label
 _atom_site_symmetry_multiplicity
 _atom_site_fract_x
 _atom_site_fract_y
 _atom_site_fract_z
 _atom_site_occupancy
  Gd  Gd0  1  0.00000000  0.00000000  0.98972100  1.0
  Al  Al1  1  0.33333333  0.66666667  0.37113600  1.0
  Zn  Zn2  1  0.66666667  0.33333333  0.64553300  1.0
  Ge  Ge3  1  0.66666667  0.33333333  0.24846100  1.0
  Ge  Ge4  1  0.33333333  0.66666667  0.74514900  1.0
