# generated using pymatgen
data_GdMgIn
_symmetry_space_group_name_H-M   'P 1'
_cell_length_a   4.74296000
_cell_length_b   7.62467400
_cell_length_c   7.62467367
_cell_angle_alpha   120.00000143
_cell_angle_beta   90.00000000
_cell_angle_gamma   90.00000000
_symmetry_Int_Tables_number   1
_chemical_formula_structural   GdMgIn
_chemical_formula_sum   'Gd3 Mg3 In3'
_cell_volume   238.79356986
_cell_formula_units_Z   3
loop_
 _symmetry_equiv_pos_site_id
 _symmetry_equiv_pos_as_xyz
  1  'x, y, z'
loop_
 _atom_site_type_symbol
 _atom_site_label
 _atom_site_symmetry_multiplicity
 _atom_site_fract_x
 _atom_site_fract_y
 _atom_site_fract_z
 _atom_site_occupancy
  Gd  Gd0  1  1.00000000  1.00000000  0.43484400  1.0
  Gd  Gd1  1  0.00000000  0.43484400  1.00000000  1.0
  Gd  Gd2  1  0.00000000  0.56515600  0.56515600  1.0
  Mg  Mg3  1  0.50000000  1.00000000  0.75936400  1.0
  Mg  Mg4  1  0.50000000  0.75936400  1.00000000  1.0
  Mg  Mg5  1  0.50000000  0.24063600  0.24063600  1.0
  In  In6  1  0.50000000  0.66666667  0.33333333  1.0
  In  In7  1  0.50000000  0.33333333  0.66666667  1.0
  In  In8  1  0.00000000  0.00000000  0.00000000  1.0
