# generated using pymatgen
data_GdNiAs
_symmetry_space_group_name_H-M   'P 1'
_cell_length_a   3.89808900
_cell_length_b   4.08672200
_cell_length_c   4.08672281
_cell_angle_alpha   60.00000652
_cell_angle_beta   90.00000000
_cell_angle_gamma   90.00000000
_symmetry_Int_Tables_number   1
_chemical_formula_structural   GdNiAs
_chemical_formula_sum   'Gd1 Ni1 As1'
_cell_volume   56.38098889
_cell_formula_units_Z   1
loop_
 _symmetry_equiv_pos_site_id
 _symmetry_equiv_pos_as_xyz
  1  'x, y, z'
loop_
 _atom_site_type_symbol
 _atom_site_label
 _atom_site_symmetry_multiplicity
 _atom_site_fract_x
 _atom_site_fract_y
 _atom_site_fract_z
 _atom_site_occupancy
  Gd  Gd0  1  0.50000000  0.33333333  0.33333333  1.0
  Ni  Ni1  1  1.00000000  0.66666667  0.66666667  1.0
  As  As2  1  0.00000000  0.00000000  0.00000000  1.0
