# generated using pymatgen
data_Ge2Mo
_symmetry_space_group_name_H-M   'P 1'
_cell_length_a   3.34454800
_cell_length_b   3.34454800
_cell_length_c   4.76808532
_cell_angle_alpha   110.53150250
_cell_angle_beta   110.53150249
_cell_angle_gamma   90.00000001
_symmetry_Int_Tables_number   1
_chemical_formula_structural   Ge2Mo
_chemical_formula_sum   'Ge2 Mo1'
_cell_volume   46.31279729
_cell_formula_units_Z   1
loop_
 _symmetry_equiv_pos_site_id
 _symmetry_equiv_pos_as_xyz
  1  'x, y, z'
loop_
 _atom_site_type_symbol
 _atom_site_label
 _atom_site_symmetry_multiplicity
 _atom_site_fract_x
 _atom_site_fract_y
 _atom_site_fract_z
 _atom_site_occupancy
  Ge  Ge0  1  0.66134900  0.66134900  0.32269800  1.0
  Ge  Ge1  1  0.33865100  0.33865100  0.67730200  1.0
  Mo  Mo2  1  0.00000000  0.00000000  0.00000000  1.0
