# generated using pymatgen
data_Ge4PbO9
_symmetry_space_group_name_H-M   'P 1'
_cell_length_a   4.71793793
_cell_length_b   6.91453094
_cell_length_c   6.91453094
_cell_angle_alpha   114.48911705
_cell_angle_beta   103.29416032
_cell_angle_gamma   103.29416032
_symmetry_Int_Tables_number   1
_chemical_formula_structural   Ge4PbO9
_chemical_formula_sum   'Ge4 Pb1 O9'
_cell_volume   185.81402794
_cell_formula_units_Z   1
loop_
 _symmetry_equiv_pos_site_id
 _symmetry_equiv_pos_as_xyz
  1  'x, y, z'
loop_
 _atom_site_type_symbol
 _atom_site_label
 _atom_site_symmetry_multiplicity
 _atom_site_fract_x
 _atom_site_fract_y
 _atom_site_fract_z
 _atom_site_occupancy
  Ge  Ge0  1  0.50000000  0.51288800  0.48711200  1.0
  Ge  Ge1  1  0.68305700  0.07089800  0.48715900  1.0
  Ge  Ge2  1  0.00000000  0.69183900  0.30816100  1.0
  Ge  Ge3  1  0.31694300  0.51284100  0.92910200  1.0
  Pb  Pb4  1  0.00000000  0.99994000  0.00006000  1.0
  O  O5  1  0.60265000  0.46239300  0.09438800  1.0
  O  O6  1  0.39735000  0.90561200  0.53760700  1.0
  O  O7  1  0.84549800  0.92646600  0.28897500  1.0
  O  O8  1  0.86639500  0.71162800  0.55428600  1.0
  O  O9  1  0.15450200  0.71102500  0.07353400  1.0
  O  O10  1  0.13360500  0.44571400  0.28837200  1.0
  O  O11  1  0.51440200  0.22981500  0.37867600  1.0
  O  O12  1  0.00000000  0.24421800  0.75578200  1.0
  O  O13  1  0.48559800  0.62132400  0.77018500  1.0
