# generated using pymatgen
data_GeS2
_symmetry_space_group_name_H-M   'P 1'
_cell_length_a   5.78545200
_cell_length_b   6.11900800
_cell_length_c   5.78545200
_cell_angle_alpha   61.78741868
_cell_angle_beta   90.00000000
_cell_angle_gamma   118.21258131
_symmetry_Int_Tables_number   1
_chemical_formula_structural   GeS2
_chemical_formula_sum   'Ge2 S4'
_cell_volume   152.30994732
_cell_formula_units_Z   2
loop_
 _symmetry_equiv_pos_site_id
 _symmetry_equiv_pos_as_xyz
  1  'x, y, z'
loop_
 _atom_site_type_symbol
 _atom_site_label
 _atom_site_symmetry_multiplicity
 _atom_site_fract_x
 _atom_site_fract_y
 _atom_site_fract_z
 _atom_site_occupancy
  Ge  Ge0  1  0.75000000  0.50000000  0.75000000  1.0
  Ge  Ge1  1  0.00000000  0.00000000  0.00000000  1.0
  S  S2  1  0.87500000  0.25000000  0.65116900  1.0
  S  S3  1  0.09883100  0.75000000  0.87500000  1.0
  S  S4  1  0.37500000  0.25000000  0.09883100  1.0
  S  S5  1  0.65116900  0.75000000  0.37500000  1.0
