# generated using pymatgen
data_H2SO4
_symmetry_space_group_name_H-M   'P 1'
_cell_length_a   4.78362291
_cell_length_b   4.78362291
_cell_length_c   8.72950866
_cell_angle_alpha   92.38481688
_cell_angle_beta   103.85608110
_cell_angle_gamma   119.14604843
_symmetry_Int_Tables_number   1
_chemical_formula_structural   H2SO4
_chemical_formula_sum   'H4 S2 O8'
_cell_volume   166.41197360
_cell_formula_units_Z   2
loop_
 _symmetry_equiv_pos_site_id
 _symmetry_equiv_pos_as_xyz
  1  'x, y, z'
loop_
 _atom_site_type_symbol
 _atom_site_label
 _atom_site_symmetry_multiplicity
 _atom_site_fract_x
 _atom_site_fract_y
 _atom_site_fract_z
 _atom_site_occupancy
  H  H0  1  0.15822400  0.52515100  0.35783600  1.0
  H  H1  1  0.66731500  0.80038800  0.14216400  1.0
  H  H2  1  0.84177600  0.47484900  0.64216400  1.0
  H  H3  1  0.33268500  0.19961200  0.85783600  1.0
  S  S4  1  0.17966800  0.92966800  0.25000000  1.0
  S  S5  1  0.82033200  0.07033200  0.75000000  1.0
  O  O6  1  0.13342500  0.71767300  0.38381600  1.0
  O  O7  1  0.83385700  0.74960900  0.11618400  1.0
  O  O8  1  0.86657500  0.28232700  0.61618400  1.0
  O  O9  1  0.16614300  0.25039100  0.88381600  1.0
  O  O10  1  0.25026700  0.24070600  0.32329300  1.0
  O  O11  1  0.41741300  0.92697400  0.17670700  1.0
  O  O12  1  0.74973300  0.75929400  0.67670700  1.0
  O  O13  1  0.58258700  0.07302600  0.82329300  1.0
