# generated using pymatgen
data_H3CBr
_symmetry_space_group_name_H-M   'P 1'
_cell_length_a   4.47054398
_cell_length_b   4.47054398
_cell_length_c   8.08227500
_cell_angle_alpha   90.00000000
_cell_angle_beta   90.00000000
_cell_angle_gamma   102.90813405
_symmetry_Int_Tables_number   1
_chemical_formula_structural   H3CBr
_chemical_formula_sum   'H6 C2 Br2'
_cell_volume   157.44848007
_cell_formula_units_Z   2
loop_
 _symmetry_equiv_pos_site_id
 _symmetry_equiv_pos_as_xyz
  1  'x, y, z'
loop_
 _atom_site_type_symbol
 _atom_site_label
 _atom_site_symmetry_multiplicity
 _atom_site_fract_x
 _atom_site_fract_y
 _atom_site_fract_z
 _atom_site_occupancy
  H  H0  1  0.44129000  0.44129000  0.13700000  1.0
  H  H1  1  0.55871000  0.55871000  0.63700000  1.0
  H  H2  1  0.76886700  0.50993400  0.00098000  1.0
  H  H3  1  0.50993400  0.76886700  0.00098000  1.0
  H  H4  1  0.23113300  0.49006600  0.50098000  1.0
  H  H5  1  0.49006600  0.23113300  0.50098000  1.0
  C  C6  1  0.61484000  0.61484000  0.07474600  1.0
  C  C7  1  0.38516000  0.38516000  0.57474600  1.0
  Br  Br8  1  0.86387100  0.86387100  0.24659500  1.0
  Br  Br9  1  0.13612900  0.13612900  0.74659500  1.0
