# generated using pymatgen
data_H6PbCI3N
_symmetry_space_group_name_H-M   'P 1'
_cell_length_a   6.43672400
_cell_length_b   6.43839300
_cell_length_c   6.49206998
_cell_angle_alpha   90.00000000
_cell_angle_beta   89.58053777
_cell_angle_gamma   90.00000000
_symmetry_Int_Tables_number   1
_chemical_formula_structural   H6PbCI3N
_chemical_formula_sum   'H6 Pb1 C1 I3 N1'
_cell_volume   269.03818471
_cell_formula_units_Z   1
loop_
 _symmetry_equiv_pos_site_id
 _symmetry_equiv_pos_as_xyz
  1  'x, y, z'
loop_
 _atom_site_type_symbol
 _atom_site_label
 _atom_site_symmetry_multiplicity
 _atom_site_fract_x
 _atom_site_fract_y
 _atom_site_fract_z
 _atom_site_occupancy
  H  H0  1  0.84090700  0.13894400  0.93112300  1.0
  H  H1  1  0.86763700  0.00000000  0.16822800  1.0
  H  H2  1  0.20399700  0.86957100  0.03901500  1.0
  H  H3  1  0.17881400  1.00000000  0.82019100  1.0
  H  H4  1  0.20399700  0.13042900  0.03901500  1.0
  H  H5  1  0.84090700  0.86105600  0.93112300  1.0
  Pb  Pb6  1  0.47523900  0.50000000  0.52422100  1.0
  C  C7  1  0.90461300  1.00000000  0.00348500  1.0
  I  I8  1  0.42823900  0.50000000  0.02756400  1.0
  I  I9  1  0.96163700  0.50000000  0.55100600  1.0
  I  I10  1  0.43714700  0.00000000  0.49421600  1.0
  N  N11  1  0.13487200  1.00000000  0.97511200  1.0
