# generated using pymatgen
data_Hf2Au
_symmetry_space_group_name_H-M   'P 1'
_cell_length_a   3.24551600
_cell_length_b   3.24551600
_cell_length_c   6.30561570
_cell_angle_alpha   104.91295176
_cell_angle_beta   104.91295177
_cell_angle_gamma   89.99999998
_symmetry_Int_Tables_number   1
_chemical_formula_structural   Hf2Au
_chemical_formula_sum   'Hf2 Au1'
_cell_volume   61.86427559
_cell_formula_units_Z   1
loop_
 _symmetry_equiv_pos_site_id
 _symmetry_equiv_pos_as_xyz
  1  'x, y, z'
loop_
 _atom_site_type_symbol
 _atom_site_label
 _atom_site_symmetry_multiplicity
 _atom_site_fract_x
 _atom_site_fract_y
 _atom_site_fract_z
 _atom_site_occupancy
  Hf  Hf0  1  0.66272000  0.66272000  0.32544000  1.0
  Hf  Hf1  1  0.33728000  0.33728000  0.67456000  1.0
  Au  Au2  1  0.00000000  0.00000000  0.00000000  1.0
