# generated using pymatgen
data_Hf3N2O3
_symmetry_space_group_name_H-M   'P 1'
_cell_length_a   4.00393400
_cell_length_b   5.66902251
_cell_length_c   10.64915256
_cell_angle_alpha   90.52077449
_cell_angle_beta   90.00000000
_cell_angle_gamma   110.67958290
_symmetry_Int_Tables_number   1
_chemical_formula_structural   Hf3N2O3
_chemical_formula_sum   'Hf6 N4 O6'
_cell_volume   226.13401793
_cell_formula_units_Z   2
loop_
 _symmetry_equiv_pos_site_id
 _symmetry_equiv_pos_as_xyz
  1  'x, y, z'
loop_
 _atom_site_type_symbol
 _atom_site_label
 _atom_site_symmetry_multiplicity
 _atom_site_fract_x
 _atom_site_fract_y
 _atom_site_fract_z
 _atom_site_occupancy
  Hf  Hf0  1  0.18445500  0.36891000  0.24874200  1.0
  Hf  Hf1  1  0.14505500  0.29011000  0.94181100  1.0
  Hf  Hf2  1  0.13659900  0.27319800  0.55546600  1.0
  Hf  Hf3  1  0.80792500  0.61585000  0.74961200  1.0
  Hf  Hf4  1  0.85735800  0.71471600  0.05501500  1.0
  Hf  Hf5  1  0.86316900  0.72633800  0.44031000  1.0
  N  N6  1  0.30002900  0.60005800  0.07899600  1.0
  N  N7  1  0.04671300  0.09342600  0.38484100  1.0
  N  N8  1  0.70447500  0.40895000  0.57476900  1.0
  N  N9  1  0.70147100  0.40294200  0.92000500  1.0
  O  O10  1  0.31059600  0.62119200  0.41907900  1.0
  O  O11  1  0.24762000  0.49524000  0.75188200  1.0
  O  O12  1  0.04573300  0.09146600  0.11288600  1.0
  O  O13  1  0.75486900  0.50973800  0.25737300  1.0
  O  O14  1  0.95636600  0.91273200  0.88470900  1.0
  O  O15  1  0.95755700  0.91511400  0.62015900  1.0
