# generated using pymatgen
data_Hf4CN3
_symmetry_space_group_name_H-M   'P 1'
_cell_length_a   3.23294497
_cell_length_b   3.23294497
_cell_length_c   10.70345067
_cell_angle_alpha   81.31375545
_cell_angle_beta   81.31375545
_cell_angle_gamma   59.99998010
_symmetry_Int_Tables_number   1
_chemical_formula_structural   Hf4CN3
_chemical_formula_sum   'Hf4 C1 N3'
_cell_volume   95.39922976
_cell_formula_units_Z   1
loop_
 _symmetry_equiv_pos_site_id
 _symmetry_equiv_pos_as_xyz
  1  'x, y, z'
loop_
 _atom_site_type_symbol
 _atom_site_label
 _atom_site_symmetry_multiplicity
 _atom_site_fract_x
 _atom_site_fract_y
 _atom_site_fract_z
 _atom_site_occupancy
  Hf  Hf0  1  0.87425000  0.87425000  0.37725000  1.0
  Hf  Hf1  1  0.12575000  0.12575000  0.62275000  1.0
  Hf  Hf2  1  0.37445800  0.37445800  0.87662600  1.0
  Hf  Hf3  1  0.62554200  0.62554200  0.12337400  1.0
  C  C4  1  0.00000000  0.00000000  0.00000000  1.0
  N  N5  1  0.24853500  0.24853500  0.25439500  1.0
  N  N6  1  0.50000000  0.50000000  0.50000000  1.0
  N  N7  1  0.75146500  0.75146500  0.74560500  1.0
