# generated using pymatgen
data_HfAlPt
_symmetry_space_group_name_H-M   'P 1'
_cell_length_a   7.07002200
_cell_length_b   7.07002230
_cell_length_c   7.33312200
_cell_angle_alpha   90.00000000
_cell_angle_beta   90.00000000
_cell_angle_gamma   119.99999861
_symmetry_Int_Tables_number   1
_chemical_formula_structural   HfAlPt
_chemical_formula_sum   'Hf6 Al6 Pt6'
_cell_volume   317.43959555
_cell_formula_units_Z   6
loop_
 _symmetry_equiv_pos_site_id
 _symmetry_equiv_pos_as_xyz
  1  'x, y, z'
loop_
 _atom_site_type_symbol
 _atom_site_label
 _atom_site_symmetry_multiplicity
 _atom_site_fract_x
 _atom_site_fract_y
 _atom_site_fract_z
 _atom_site_occupancy
  Hf  Hf0  1  0.41544700  0.39314800  0.25000000  1.0
  Hf  Hf1  1  0.97770100  0.58455300  0.25000000  1.0
  Hf  Hf2  1  0.60685200  0.02229900  0.25000000  1.0
  Hf  Hf3  1  0.02229900  0.60685200  0.75000000  1.0
  Hf  Hf4  1  0.39314800  0.41544700  0.75000000  1.0
  Hf  Hf5  1  0.58455300  0.97770100  0.75000000  1.0
  Al  Al6  1  0.25773200  0.00000000  1.00000000  1.0
  Al  Al7  1  0.74226800  0.74226800  1.00000000  1.0
  Al  Al8  1  1.00000000  0.25773200  0.00000000  1.0
  Al  Al9  1  0.25773200  0.00000000  0.50000000  1.0
  Al  Al10  1  0.74226800  0.74226800  0.50000000  1.0
  Al  Al11  1  1.00000000  0.25773200  0.50000000  1.0
  Pt  Pt12  1  0.00000000  0.00000000  0.25000000  1.0
  Pt  Pt13  1  0.00000000  0.00000000  0.75000000  1.0
  Pt  Pt14  1  0.33333333  0.66666667  0.02990600  1.0
  Pt  Pt15  1  0.33333333  0.66666667  0.47009400  1.0
  Pt  Pt16  1  0.66666667  0.33333333  0.52990500  1.0
  Pt  Pt17  1  0.66666667  0.33333333  0.97009400  1.0
