# generated using pymatgen
data_HfCrAgS4
_symmetry_space_group_name_H-M   'P 1'
_cell_length_a   7.40270036
_cell_length_b   7.40270036
_cell_length_c   7.40270036
_cell_angle_alpha   89.56813366
_cell_angle_beta   60.22217517
_cell_angle_gamma   119.72413410
_symmetry_Int_Tables_number   1
_chemical_formula_structural   HfCrAgS4
_chemical_formula_sum   'Hf2 Cr2 Ag2 S8'
_cell_volume   287.92118945
_cell_formula_units_Z   2
loop_
 _symmetry_equiv_pos_site_id
 _symmetry_equiv_pos_as_xyz
  1  'x, y, z'
loop_
 _atom_site_type_symbol
 _atom_site_label
 _atom_site_symmetry_multiplicity
 _atom_site_fract_x
 _atom_site_fract_y
 _atom_site_fract_z
 _atom_site_occupancy
  Hf  Hf0  1  0.00000000  0.00000000  0.00000000  1.0
  Hf  Hf1  1  0.50000000  0.50000000  1.00000000  1.0
  Cr  Cr2  1  0.50000000  0.50000000  0.50000000  1.0
  Cr  Cr3  1  0.00000000  0.50000000  0.00000000  1.0
  Ag  Ag4  1  0.75000000  0.12043300  0.62956700  1.0
  Ag  Ag5  1  0.25000000  0.87956700  0.37043300  1.0
  S  S6  1  0.01561200  0.26596100  0.21842700  1.0
  S  S7  1  0.51561200  0.73403900  0.25034900  1.0
  S  S8  1  0.96607300  0.72312500  0.24294800  1.0
  S  S9  1  0.53392700  0.29097900  0.24294800  1.0
  S  S10  1  0.03392700  0.27687500  0.75705200  1.0
  S  S11  1  0.46607300  0.70902100  0.75705200  1.0
  S  S12  1  0.98438800  0.73403900  0.78157300  1.0
  S  S13  1  0.48438800  0.26596100  0.74965100  1.0
