# generated using pymatgen
data_HfPRu
_symmetry_space_group_name_H-M   'P 1'
_cell_length_a   3.79275000
_cell_length_b   6.43576600
_cell_length_c   6.43576526
_cell_angle_alpha   120.00000378
_cell_angle_beta   90.00000000
_cell_angle_gamma   90.00000000
_symmetry_Int_Tables_number   1
_chemical_formula_structural   HfPRu
_chemical_formula_sum   'Hf3 P3 Ru3'
_cell_volume   136.04584175
_cell_formula_units_Z   3
loop_
 _symmetry_equiv_pos_site_id
 _symmetry_equiv_pos_as_xyz
  1  'x, y, z'
loop_
 _atom_site_type_symbol
 _atom_site_label
 _atom_site_symmetry_multiplicity
 _atom_site_fract_x
 _atom_site_fract_y
 _atom_site_fract_z
 _atom_site_occupancy
  Hf  Hf0  1  0.50000000  1.00000000  0.58372700  1.0
  Hf  Hf1  1  0.50000000  0.58372700  0.00000000  1.0
  Hf  Hf2  1  0.50000000  0.41627300  0.41627300  1.0
  P  P3  1  1.00000000  0.33333333  0.66666667  1.0
  P  P4  1  1.00000000  0.66666667  0.33333333  1.0
  P  P5  1  0.50000000  0.00000000  0.00000000  1.0
  Ru  Ru6  1  0.00000000  0.75336100  0.75336100  1.0
  Ru  Ru7  1  0.00000000  0.24663900  1.00000000  1.0
  Ru  Ru8  1  0.00000000  1.00000000  0.24663900  1.0
