# generated using pymatgen
data_HfTiC2
_symmetry_space_group_name_H-M   'P 1'
_cell_length_a   3.19375378
_cell_length_b   3.19375378
_cell_length_c   5.47955164
_cell_angle_alpha   73.05673007
_cell_angle_beta   73.05673007
_cell_angle_gamma   60.00000450
_symmetry_Int_Tables_number   1
_chemical_formula_structural   HfTiC2
_chemical_formula_sum   'Hf1 Ti1 C2'
_cell_volume   45.58081884
_cell_formula_units_Z   1
loop_
 _symmetry_equiv_pos_site_id
 _symmetry_equiv_pos_as_xyz
  1  'x, y, z'
loop_
 _atom_site_type_symbol
 _atom_site_label
 _atom_site_symmetry_multiplicity
 _atom_site_fract_x
 _atom_site_fract_y
 _atom_site_fract_z
 _atom_site_occupancy
  Hf  Hf0  1  0.00000000  0.00000000  0.00000000  1.0
  Ti  Ti1  1  0.50000000  0.50000000  0.50000000  1.0
  C  C2  1  0.75408700  0.75408700  0.73773900  1.0
  C  C3  1  0.24591300  0.24591300  0.26226100  1.0
