# generated using pymatgen
data_HfTi3
_symmetry_space_group_name_H-M   'P 1'
_cell_length_a   4.75121900
_cell_length_b   6.02669400
_cell_length_c   6.02669478
_cell_angle_alpha   60.00000425
_cell_angle_beta   90.00000000
_cell_angle_gamma   90.00000000
_symmetry_Int_Tables_number   1
_chemical_formula_structural   HfTi3
_chemical_formula_sum   'Hf2 Ti6'
_cell_volume   149.44935262
_cell_formula_units_Z   2
loop_
 _symmetry_equiv_pos_site_id
 _symmetry_equiv_pos_as_xyz
  1  'x, y, z'
loop_
 _atom_site_type_symbol
 _atom_site_label
 _atom_site_symmetry_multiplicity
 _atom_site_fract_x
 _atom_site_fract_y
 _atom_site_fract_z
 _atom_site_occupancy
  Hf  Hf0  1  0.25000000  0.33333333  0.33333333  1.0
  Hf  Hf1  1  0.75000000  0.66666667  0.66666667  1.0
  Ti  Ti2  1  0.75000000  0.67745500  0.16127300  1.0
  Ti  Ti3  1  0.75000000  0.16127200  0.16127300  1.0
  Ti  Ti4  1  0.75000000  0.16127200  0.67745600  1.0
  Ti  Ti5  1  0.25000000  0.32254500  0.83872700  1.0
  Ti  Ti6  1  0.25000000  0.83872800  0.83872700  1.0
  Ti  Ti7  1  0.25000000  0.83872800  0.32254400  1.0
