# generated using pymatgen
data_Hg3AsS4Cl
_symmetry_space_group_name_H-M   'P 1'
_cell_length_a   7.58965200
_cell_length_b   7.58965162
_cell_length_c   9.67490700
_cell_angle_alpha   90.00000000
_cell_angle_beta   90.00000000
_cell_angle_gamma   120.00000165
_symmetry_Int_Tables_number   1
_chemical_formula_structural   Hg3AsS4Cl
_chemical_formula_sum   'Hg6 As2 S8 Cl2'
_cell_volume   482.63757254
_cell_formula_units_Z   2
loop_
 _symmetry_equiv_pos_site_id
 _symmetry_equiv_pos_as_xyz
  1  'x, y, z'
loop_
 _atom_site_type_symbol
 _atom_site_label
 _atom_site_symmetry_multiplicity
 _atom_site_fract_x
 _atom_site_fract_y
 _atom_site_fract_z
 _atom_site_occupancy
  Hg  Hg0  1  0.49781100  0.99562200  0.25653800  1.0
  Hg  Hg1  1  0.50218900  0.00437800  0.75653800  1.0
  Hg  Hg2  1  0.50218900  0.49781200  0.75653800  1.0
  Hg  Hg3  1  0.99562300  0.49781200  0.75653800  1.0
  Hg  Hg4  1  0.00437700  0.50218800  0.25653800  1.0
  Hg  Hg5  1  0.49781100  0.50218800  0.25653800  1.0
  As  As6  1  0.00000000  0.00000000  0.26979700  1.0
  As  As7  1  0.00000000  0.00000000  0.76979700  1.0
  S  S8  1  0.33333333  0.66666667  0.38524800  1.0
  S  S9  1  0.14857000  0.85143100  0.64319700  1.0
  S  S10  1  0.29713900  0.14856900  0.14319700  1.0
  S  S11  1  0.14857000  0.29714000  0.64319700  1.0
  S  S12  1  0.85143000  0.14856900  0.14319700  1.0
  S  S13  1  0.66666667  0.33333333  0.88524800  1.0
  S  S14  1  0.70286100  0.85143100  0.64319700  1.0
  S  S15  1  0.85143000  0.70286000  0.14319700  1.0
  Cl  Cl16  1  0.66666667  0.33333333  0.45845000  1.0
  Cl  Cl17  1  0.33333333  0.66666667  0.95845000  1.0
