# generated using pymatgen
data_Ho2CuGe4
_symmetry_space_group_name_H-M   'P 1'
_cell_length_a   4.04507800
_cell_length_b   4.05714900
_cell_length_c   8.64152610
_cell_angle_alpha   103.57672798
_cell_angle_beta   90.00000000
_cell_angle_gamma   90.00000000
_symmetry_Int_Tables_number   1
_chemical_formula_structural   Ho2CuGe4
_chemical_formula_sum   'Ho2 Cu1 Ge4'
_cell_volume   137.85730403
_cell_formula_units_Z   1
loop_
 _symmetry_equiv_pos_site_id
 _symmetry_equiv_pos_as_xyz
  1  'x, y, z'
loop_
 _atom_site_type_symbol
 _atom_site_label
 _atom_site_symmetry_multiplicity
 _atom_site_fract_x
 _atom_site_fract_y
 _atom_site_fract_z
 _atom_site_occupancy
  Ho  Ho0  1  0.25000000  0.10640500  0.21281000  1.0
  Ho  Ho1  1  0.75000000  0.89558600  0.79117300  1.0
  Cu  Cu2  1  0.25000000  0.32336900  0.64673800  1.0
  Ge  Ge3  1  0.25000000  0.74012100  0.48024300  1.0
  Ge  Ge4  1  0.75000000  0.24139800  0.48279500  1.0
  Ge  Ge5  1  0.25000000  0.46241200  0.92482300  1.0
  Ge  Ge6  1  0.75000000  0.55270900  0.10541900  1.0
