# generated using pymatgen
data_Ho2CoGe2
_symmetry_space_group_name_H-M   'P 1'
_cell_length_a   4.20269800
_cell_length_b   5.63709889
_cell_length_c   9.20522973
_cell_angle_alpha   82.57198984
_cell_angle_beta   76.80430398
_cell_angle_gamma   68.11336415
_symmetry_Int_Tables_number   1
_chemical_formula_structural   Ho2CoGe2
_chemical_formula_sum   'Ho4 Co2 Ge4'
_cell_volume   196.78376820
_cell_formula_units_Z   2
loop_
 _symmetry_equiv_pos_site_id
 _symmetry_equiv_pos_as_xyz
  1  'x, y, z'
loop_
 _atom_site_type_symbol
 _atom_site_label
 _atom_site_symmetry_multiplicity
 _atom_site_fract_x
 _atom_site_fract_y
 _atom_site_fract_z
 _atom_site_occupancy
  Ho  Ho0  1  0.81306900  0.26317700  0.11068500  1.0
  Ho  Ho1  1  0.18693100  0.73682300  0.88931500  1.0
  Ho  Ho2  1  0.99397400  0.67958600  0.33246600  1.0
  Ho  Ho3  1  0.00602600  0.32041400  0.66753400  1.0
  Co  Co4  1  0.72462700  0.91017900  0.64056700  1.0
  Co  Co5  1  0.27537300  0.08982100  0.35943300  1.0
  Ge  Ge6  1  0.51234100  0.85001800  0.12530000  1.0
  Ge  Ge7  1  0.48765900  0.14998200  0.87470000  1.0
  Ge  Ge8  1  0.65251700  0.26116500  0.43380100  1.0
  Ge  Ge9  1  0.34748300  0.73883500  0.56619900  1.0
