# generated using pymatgen
data_Ho2Fe2Si2C
_symmetry_space_group_name_H-M   'P 1'
_cell_length_a   3.91886600
_cell_length_b   5.61554137
_cell_length_c   5.62608427
_cell_angle_alpha   73.19171381
_cell_angle_beta   69.61806500
_cell_angle_gamma   69.57809349
_symmetry_Int_Tables_number   1
_chemical_formula_structural   Ho2Fe2Si2C
_chemical_formula_sum   'Ho2 Fe2 Si2 C1'
_cell_volume   106.76577701
_cell_formula_units_Z   1
loop_
 _symmetry_equiv_pos_site_id
 _symmetry_equiv_pos_as_xyz
  1  'x, y, z'
loop_
 _atom_site_type_symbol
 _atom_site_label
 _atom_site_symmetry_multiplicity
 _atom_site_fract_x
 _atom_site_fract_y
 _atom_site_fract_z
 _atom_site_occupancy
  Ho  Ho0  1  0.44092100  0.82500400  0.29315400  1.0
  Ho  Ho1  1  0.55907900  0.17499600  0.70684600  1.0
  Fe  Fe2  1  0.79820500  0.30693500  0.09665500  1.0
  Fe  Fe3  1  0.20179500  0.69306500  0.90334500  1.0
  Si  Si4  1  0.83914100  0.60690400  0.71481400  1.0
  Si  Si5  1  0.16085900  0.39309600  0.28518600  1.0
  C  C6  1  0.00000000  0.00000000  0.00000000  1.0
