# generated using pymatgen
data_Ho3GaO6
_symmetry_space_group_name_H-M   'P 1'
_cell_length_a   5.41991400
_cell_length_b   7.10795124
_cell_length_c   7.10795124
_cell_angle_alpha   102.85827920
_cell_angle_beta   90.00000000
_cell_angle_gamma   90.00000000
_symmetry_Int_Tables_number   1
_chemical_formula_structural   Ho3GaO6
_chemical_formula_sum   'Ho6 Ga2 O12'
_cell_volume   266.96345465
_cell_formula_units_Z   2
loop_
 _symmetry_equiv_pos_site_id
 _symmetry_equiv_pos_as_xyz
  1  'x, y, z'
loop_
 _atom_site_type_symbol
 _atom_site_label
 _atom_site_symmetry_multiplicity
 _atom_site_fract_x
 _atom_site_fract_y
 _atom_site_fract_z
 _atom_site_occupancy
  Ho  Ho0  1  0.07244700  0.60160500  0.39839500  1.0
  Ho  Ho1  1  0.57244700  0.39839500  0.60160500  1.0
  Ho  Ho2  1  0.02404400  0.08829600  0.29876200  1.0
  Ho  Ho3  1  0.52404400  0.91170400  0.70123800  1.0
  Ho  Ho4  1  0.02404400  0.70123800  0.91170400  1.0
  Ho  Ho5  1  0.52404400  0.29876200  0.08829600  1.0
  Ga  Ga6  1  0.49351700  0.80660300  0.19339700  1.0
  Ga  Ga7  1  0.99351700  0.19339700  0.80660300  1.0
  O  O8  1  0.83256100  0.78463000  0.21537000  1.0
  O  O9  1  0.33256100  0.21537000  0.78463000  1.0
  O  O10  1  0.34756300  0.96110900  0.03889100  1.0
  O  O11  1  0.84756300  0.03889100  0.96110900  1.0
  O  O12  1  0.29761600  0.32282500  0.35660900  1.0
  O  O13  1  0.79761600  0.67717500  0.64339100  1.0
  O  O14  1  0.29761600  0.64339100  0.67717500  1.0
  O  O15  1  0.79761600  0.35660900  0.32282500  1.0
  O  O16  1  0.81342500  0.42336500  0.89401800  1.0
  O  O17  1  0.31342500  0.57663500  0.10598200  1.0
  O  O18  1  0.81342500  0.10598200  0.57663500  1.0
  O  O19  1  0.31342500  0.89401800  0.42336500  1.0
