# generated using pymatgen
data_Ho3Sc2S7
_symmetry_space_group_name_H-M   'P 1'
_cell_length_a   3.73314200
_cell_length_b   6.45911796
_cell_length_c   11.38478576
_cell_angle_alpha   103.81431870
_cell_angle_beta   90.00000000
_cell_angle_gamma   106.79703982
_symmetry_Int_Tables_number   1
_chemical_formula_structural   Ho3Sc2S7
_chemical_formula_sum   'Ho3 Sc2 S7'
_cell_volume   254.50085968
_cell_formula_units_Z   1
loop_
 _symmetry_equiv_pos_site_id
 _symmetry_equiv_pos_as_xyz
  1  'x, y, z'
loop_
 _atom_site_type_symbol
 _atom_site_label
 _atom_site_symmetry_multiplicity
 _atom_site_fract_x
 _atom_site_fract_y
 _atom_site_fract_z
 _atom_site_occupancy
  Ho  Ho0  1  0.30125900  0.60251800  0.18748500  1.0
  Ho  Ho1  1  0.69833100  0.39666200  0.80926200  1.0
  Ho  Ho2  1  0.11168500  0.22337000  0.42541200  1.0
  Sc  Sc3  1  0.88795700  0.77591400  0.57948100  1.0
  Sc  Sc4  1  0.99951700  0.99903400  0.99747300  1.0
  S  S5  1  0.96537000  0.93074000  0.20904700  1.0
  S  S6  1  0.03195000  0.06390000  0.78466600  1.0
  S  S7  1  0.26480900  0.52961800  0.64741800  1.0
  S  S8  1  0.74577900  0.49155800  0.35681000  1.0
  S  S9  1  0.65344800  0.30689600  0.04800300  1.0
  S  S10  1  0.34523900  0.69047700  0.95045700  1.0
  S  S11  1  0.49465600  0.98931200  0.50448500  1.0
