# generated using pymatgen
data_Ho6GaCo2
_symmetry_space_group_name_H-M   'P 1'
_cell_length_a   8.22937893
_cell_length_b   8.22937893
_cell_length_c   8.22937893
_cell_angle_alpha   73.09850698
_cell_angle_beta   70.38553380
_cell_angle_gamma   111.93678913
_symmetry_Int_Tables_number   1
_chemical_formula_structural   Ho6GaCo2
_chemical_formula_sum   'Ho12 Ga2 Co4'
_cell_volume   428.19347872
_cell_formula_units_Z   2
loop_
 _symmetry_equiv_pos_site_id
 _symmetry_equiv_pos_as_xyz
  1  'x, y, z'
loop_
 _atom_site_type_symbol
 _atom_site_label
 _atom_site_symmetry_multiplicity
 _atom_site_fract_x
 _atom_site_fract_y
 _atom_site_fract_z
 _atom_site_occupancy
  Ho  Ho0  1  0.30288900  0.26128200  0.43582900  1.0
  Ho  Ho1  1  0.69711100  0.73871800  0.56417100  1.0
  Ho  Ho2  1  0.81196700  0.48552000  0.32644700  1.0
  Ho  Ho3  1  0.81196700  0.13841400  0.67355200  1.0
  Ho  Ho4  1  0.18803300  0.51448000  0.67355300  1.0
  Ho  Ho5  1  0.18803300  0.86158600  0.32644800  1.0
  Ho  Ho6  1  0.69711100  0.26128200  0.04160700  1.0
  Ho  Ho7  1  0.30288900  0.73871800  0.95839300  1.0
  Ho  Ho8  1  0.03867500  0.21941500  0.18074000  1.0
  Ho  Ho9  1  0.40015400  0.21941400  0.81926100  1.0
  Ho  Ho10  1  0.59984600  0.78058600  0.18073900  1.0
  Ho  Ho11  1  0.96132500  0.78058500  0.81926000  1.0
  Ga  Ga12  1  0.50000000  0.50000000  0.00000000  1.0
  Ga  Ga13  1  0.50000000  0.00000000  0.50000000  1.0
  Co  Co14  1  0.00000000  0.11517400  0.88482600  1.0
  Co  Co15  1  1.00000000  0.88482600  0.11517400  1.0
  Co  Co16  1  0.83632400  0.50000000  0.66367600  1.0
  Co  Co17  1  0.16367600  0.50000000  0.33632400  1.0
