# generated using pymatgen
data_HoAsS
_symmetry_space_group_name_H-M   'P 1'
_cell_length_a   3.81260700
_cell_length_b   3.82922700
_cell_length_c   8.48373700
_cell_angle_alpha   90.00000000
_cell_angle_beta   90.00000000
_cell_angle_gamma   90.00000000
_symmetry_Int_Tables_number   1
_chemical_formula_structural   HoAsS
_chemical_formula_sum   'Ho2 As2 S2'
_cell_volume   123.85694112
_cell_formula_units_Z   2
loop_
 _symmetry_equiv_pos_site_id
 _symmetry_equiv_pos_as_xyz
  1  'x, y, z'
loop_
 _atom_site_type_symbol
 _atom_site_label
 _atom_site_symmetry_multiplicity
 _atom_site_fract_x
 _atom_site_fract_y
 _atom_site_fract_z
 _atom_site_occupancy
  As  As4  1  0.75000000  0.25000000  0.00353000  1.0
  As  As6  1  0.25000000  0.75000000  0.99647000  1.0
  Ho  Ho0  1  0.25000000  0.25000000  0.70851000  1.0
  Ho  Ho2  1  0.75000000  0.75000000  0.29149000  1.0
  S  S8  1  0.25000000  0.25000000  0.37397000  1.0
  S  S10  1  0.75000000  0.75000000  0.62603000  1.0
