# generated using pymatgen
data_HoCo4B
_symmetry_space_group_name_H-M   'P 1'
_cell_length_a   4.99059384
_cell_length_b   4.99059384
_cell_length_c   6.85409500
_cell_angle_alpha   90.00000000
_cell_angle_beta   90.00000000
_cell_angle_gamma   119.99999788
_symmetry_Int_Tables_number   1
_chemical_formula_structural   HoCo4B
_chemical_formula_sum   'Ho2 Co8 B2'
_cell_volume   147.83770532
_cell_formula_units_Z   2
loop_
 _symmetry_equiv_pos_site_id
 _symmetry_equiv_pos_as_xyz
  1  'x, y, z'
loop_
 _atom_site_type_symbol
 _atom_site_label
 _atom_site_symmetry_multiplicity
 _atom_site_fract_x
 _atom_site_fract_y
 _atom_site_fract_z
 _atom_site_occupancy
  Ho  Ho0  1  0.00000000  0.00000000  0.50000000  1.0
  Ho  Ho1  1  0.00000000  0.00000000  0.00000000  1.0
  Co  Co2  1  0.50000000  1.00000000  0.21222300  1.0
  Co  Co3  1  0.50000000  0.50000000  0.21222300  1.0
  Co  Co4  1  1.00000000  0.50000000  0.21222300  1.0
  Co  Co5  1  0.50000000  1.00000000  0.78777700  1.0
  Co  Co6  1  0.50000000  0.50000000  0.78777700  1.0
  Co  Co7  1  1.00000000  0.50000000  0.78777700  1.0
  Co  Co8  1  0.33333333  0.66666667  0.50000000  1.0
  Co  Co9  1  0.66666667  0.33333333  0.50000000  1.0
  B  B10  1  0.33333333  0.66666667  1.00000000  1.0
  B  B11  1  0.66666667  0.33333333  1.00000000  1.0
