# generated using pymatgen
data_HoCo4Ni
_symmetry_space_group_name_H-M   'P 1'
_cell_length_a   3.94013300
_cell_length_b   4.90620800
_cell_length_c   4.90620820
_cell_angle_alpha   60.00000137
_cell_angle_beta   90.00000000
_cell_angle_gamma   90.00000000
_symmetry_Int_Tables_number   1
_chemical_formula_structural   HoCo4Ni
_chemical_formula_sum   'Ho1 Co4 Ni1'
_cell_volume   82.13598117
_cell_formula_units_Z   1
loop_
 _symmetry_equiv_pos_site_id
 _symmetry_equiv_pos_as_xyz
  1  'x, y, z'
loop_
 _atom_site_type_symbol
 _atom_site_label
 _atom_site_symmetry_multiplicity
 _atom_site_fract_x
 _atom_site_fract_y
 _atom_site_fract_z
 _atom_site_occupancy
  Ho  Ho0  1  1.00000000  0.33333333  0.33333333  1.0
  Co  Co1  1  0.00000000  0.00000000  0.00000000  1.0
  Co  Co2  1  0.50000000  0.83180500  0.83180500  1.0
  Co  Co3  1  0.50000000  0.83180500  0.33639000  1.0
  Co  Co4  1  0.50000000  0.33639000  0.83180500  1.0
  Ni  Ni5  1  1.00000000  0.66666667  0.66666667  1.0
