# generated using pymatgen
data_HoFe4(CuO4)3
_symmetry_space_group_name_H-M   'P 1'
_cell_length_a   6.46071406
_cell_length_b   6.46071406
_cell_length_c   6.46071406
_cell_angle_alpha   109.47122063
_cell_angle_beta   109.47122064
_cell_angle_gamma   109.47122064
_symmetry_Int_Tables_number   1
_chemical_formula_structural   HoFe4(CuO4)3
_chemical_formula_sum   'Ho1 Fe4 Cu3 O12'
_cell_volume   207.59632943
_cell_formula_units_Z   1
loop_
 _symmetry_equiv_pos_site_id
 _symmetry_equiv_pos_as_xyz
  1  'x, y, z'
loop_
 _atom_site_type_symbol
 _atom_site_label
 _atom_site_symmetry_multiplicity
 _atom_site_fract_x
 _atom_site_fract_y
 _atom_site_fract_z
 _atom_site_occupancy
  Ho  Ho0  1  0.00000000  0.00000000  0.00000000  1.0
  Fe  Fe1  1  0.50000000  0.50000000  0.50000000  1.0
  Fe  Fe2  1  0.00000000  0.00000000  0.50000000  1.0
  Fe  Fe3  1  0.00000000  0.50000000  0.00000000  1.0
  Fe  Fe4  1  0.50000000  1.00000000  1.00000000  1.0
  Cu  Cu5  1  0.50000000  0.50000000  0.00000000  1.0
  Cu  Cu6  1  0.50000000  0.00000000  0.50000000  1.0
  Cu  Cu7  1  0.00000000  0.50000000  0.50000000  1.0
  O  O8  1  0.30720300  0.16421200  0.47141400  1.0
  O  O9  1  0.69279700  0.83578800  0.52858600  1.0
  O  O10  1  0.30720300  0.83578900  0.14299200  1.0
  O  O11  1  0.69279700  0.16421100  0.85700800  1.0
  O  O12  1  0.83578900  0.52858600  0.69279800  1.0
  O  O13  1  0.16421100  0.47141400  0.30720200  1.0
  O  O14  1  0.16421100  0.85700800  0.69279700  1.0
  O  O15  1  0.83578900  0.14299200  0.30720300  1.0
  O  O16  1  0.14299100  0.30720200  0.83578800  1.0
  O  O17  1  0.85700900  0.69279800  0.16421200  1.0
  O  O18  1  0.47141400  0.30720300  0.16421100  1.0
  O  O19  1  0.52858600  0.69279700  0.83578900  1.0
