# generated using pymatgen
data_HoMg(MoO3)2
_symmetry_space_group_name_H-M   'P 1'
_cell_length_a   5.39130000
_cell_length_b   5.64076400
_cell_length_c   7.95841381
_cell_angle_alpha   90.00000000
_cell_angle_beta   89.67274242
_cell_angle_gamma   90.00000000
_symmetry_Int_Tables_number   1
_chemical_formula_structural   HoMg(MoO3)2
_chemical_formula_sum   'Ho2 Mg2 Mo4 O12'
_cell_volume   242.01978017
_cell_formula_units_Z   2
loop_
 _symmetry_equiv_pos_site_id
 _symmetry_equiv_pos_as_xyz
  1  'x, y, z'
loop_
 _atom_site_type_symbol
 _atom_site_label
 _atom_site_symmetry_multiplicity
 _atom_site_fract_x
 _atom_site_fract_y
 _atom_site_fract_z
 _atom_site_occupancy
  Ho  Ho0  1  0.98910200  0.18867100  0.74917100  1.0
  Ho  Ho1  1  0.48910200  0.81132900  0.24917100  1.0
  Mg  Mg2  1  0.50349100  0.70884400  0.75100300  1.0
  Mg  Mg3  1  0.00349100  0.29115600  0.25100300  1.0
  Mo  Mo4  1  0.00053200  0.74619200  0.00003900  1.0
  Mo  Mo5  1  0.00034400  0.74351400  0.49971100  1.0
  Mo  Mo6  1  0.50053200  0.25380800  0.50003900  1.0
  Mo  Mo7  1  0.50034400  0.25648600  0.99971100  1.0
  O  O8  1  0.87124700  0.66269400  0.25284200  1.0
  O  O9  1  0.81079000  0.43361600  0.92939200  1.0
  O  O10  1  0.82717900  0.43979600  0.56811000  1.0
  O  O11  1  0.66855400  0.93807100  0.93046200  1.0
  O  O12  1  0.68674500  0.92883900  0.57291100  1.0
  O  O13  1  0.64200300  0.18448800  0.24638300  1.0
  O  O14  1  0.37124700  0.33730600  0.75284200  1.0
  O  O15  1  0.31079000  0.56638400  0.42939200  1.0
  O  O16  1  0.32717900  0.56020400  0.06811000  1.0
  O  O17  1  0.18674500  0.07116100  0.07291100  1.0
  O  O18  1  0.16855400  0.06192900  0.43046200  1.0
  O  O19  1  0.14200300  0.81551200  0.74638300  1.0
