# generated using pymatgen
data_HoSnPt
_symmetry_space_group_name_H-M   'P 1'
_cell_length_a   4.01569500
_cell_length_b   7.50919000
_cell_length_c   7.50919060
_cell_angle_alpha   119.99999734
_cell_angle_beta   90.00000000
_cell_angle_gamma   90.00000000
_symmetry_Int_Tables_number   1
_chemical_formula_structural   HoSnPt
_chemical_formula_sum   'Ho3 Sn3 Pt3'
_cell_volume   196.09999559
_cell_formula_units_Z   3
loop_
 _symmetry_equiv_pos_site_id
 _symmetry_equiv_pos_as_xyz
  1  'x, y, z'
loop_
 _atom_site_type_symbol
 _atom_site_label
 _atom_site_symmetry_multiplicity
 _atom_site_fract_x
 _atom_site_fract_y
 _atom_site_fract_z
 _atom_site_occupancy
  Ho  Ho0  1  0.50000000  0.59519800  0.00000000  1.0
  Ho  Ho1  1  0.50000000  0.40480200  0.40480200  1.0
  Ho  Ho2  1  0.50000000  1.00000000  0.59519800  1.0
  Sn  Sn3  1  1.00000000  1.00000000  0.25977900  1.0
  Sn  Sn4  1  0.00000000  0.25977900  0.00000000  1.0
  Sn  Sn5  1  0.00000000  0.74022100  0.74022100  1.0
  Pt  Pt6  1  0.00000000  0.33333333  0.66666667  1.0
  Pt  Pt7  1  0.50000000  0.00000000  0.00000000  1.0
  Pt  Pt8  1  0.00000000  0.66666667  0.33333333  1.0
