# generated using pymatgen
data_HoTlPd
_symmetry_space_group_name_H-M   'P 1'
_cell_length_a   3.76704300
_cell_length_b   7.86954200
_cell_length_c   7.86954088
_cell_angle_alpha   120.00000469
_cell_angle_beta   90.00000000
_cell_angle_gamma   90.00000000
_symmetry_Int_Tables_number   1
_chemical_formula_structural   HoTlPd
_chemical_formula_sum   'Ho3 Tl3 Pd3'
_cell_volume   202.03659560
_cell_formula_units_Z   3
loop_
 _symmetry_equiv_pos_site_id
 _symmetry_equiv_pos_as_xyz
  1  'x, y, z'
loop_
 _atom_site_type_symbol
 _atom_site_label
 _atom_site_symmetry_multiplicity
 _atom_site_fract_x
 _atom_site_fract_y
 _atom_site_fract_z
 _atom_site_occupancy
  Ho  Ho0  1  0.50000000  0.40147000  0.40147000  1.0
  Ho  Ho1  1  0.50000000  0.59853000  1.00000000  1.0
  Ho  Ho2  1  0.50000000  1.00000000  0.59853000  1.0
  Tl  Tl3  1  0.00000000  0.73164700  0.73164700  1.0
  Tl  Tl4  1  0.00000000  0.26835300  1.00000000  1.0
  Tl  Tl5  1  1.00000000  0.00000000  0.26835300  1.0
  Pd  Pd6  1  1.00000000  0.66666667  0.33333333  1.0
  Pd  Pd7  1  0.00000000  0.33333333  0.66666667  1.0
  Pd  Pd8  1  0.50000000  0.00000000  0.00000000  1.0
