# generated using pymatgen
data_In2S3
_symmetry_space_group_name_H-M   'P 1'
_cell_length_a   3.98523000
_cell_length_b   5.87949800
_cell_length_c   7.03520788
_cell_angle_alpha   114.69970660
_cell_angle_beta   106.45335702
_cell_angle_gamma   89.99999999
_symmetry_Int_Tables_number   1
_chemical_formula_structural   In2S3
_chemical_formula_sum   'In2 S3'
_cell_volume   142.29773644
_cell_formula_units_Z   1
loop_
 _symmetry_equiv_pos_site_id
 _symmetry_equiv_pos_as_xyz
  1  'x, y, z'
loop_
 _atom_site_type_symbol
 _atom_site_label
 _atom_site_symmetry_multiplicity
 _atom_site_fract_x
 _atom_site_fract_y
 _atom_site_fract_z
 _atom_site_occupancy
  In  In0  1  0.34061800  0.33284600  0.68123600  1.0
  In  In1  1  0.65938100  0.65160900  0.31876300  1.0
  S  S2  1  0.83493300  0.59412700  0.66986500  1.0
  S  S3  1  0.16506800  0.92426200  0.33013600  1.0
  S  S4  1  0.50000000  0.24715500  0.00000000  1.0
