# generated using pymatgen
data_In2S3
_symmetry_space_group_name_H-M   'P 1'
_cell_length_a   6.91398270
_cell_length_b   6.96815000
_cell_length_c   7.01070883
_cell_angle_alpha   60.20060968
_cell_angle_beta   80.78743982
_cell_angle_gamma   71.20695436
_symmetry_Int_Tables_number   1
_chemical_formula_structural   In2S3
_chemical_formula_sum   'In4 S6'
_cell_volume   277.47237668
_cell_formula_units_Z   2
loop_
 _symmetry_equiv_pos_site_id
 _symmetry_equiv_pos_as_xyz
  1  'x, y, z'
loop_
 _atom_site_type_symbol
 _atom_site_label
 _atom_site_symmetry_multiplicity
 _atom_site_fract_x
 _atom_site_fract_y
 _atom_site_fract_z
 _atom_site_occupancy
  In  In0  1  0.00127400  0.81659700  0.16612100  1.0
  In  In1  1  0.50127400  0.98271800  0.83387900  1.0
  In  In2  1  0.50427800  0.66919400  0.51029400  1.0
  In  In3  1  0.00427800  0.17948800  0.48970600  1.0
  S  S4  1  0.13571700  0.45193300  0.16266300  1.0
  S  S5  1  0.11389400  0.14085000  0.83728000  1.0
  S  S6  1  0.61389400  0.97813000  0.16272000  1.0
  S  S7  1  0.11616000  0.78562900  0.50909900  1.0
  S  S8  1  0.63571700  0.61459600  0.83733700  1.0
  S  S9  1  0.61616000  0.29472800  0.49090100  1.0
