# generated using pymatgen
data_In3GaN4
_symmetry_space_group_name_H-M   'P 1'
_cell_length_a   3.49288000
_cell_length_b   3.49288016
_cell_length_c   11.35486100
_cell_angle_alpha   90.00000000
_cell_angle_beta   90.00000000
_cell_angle_gamma   119.99999846
_symmetry_Int_Tables_number   1
_chemical_formula_structural   In3GaN4
_chemical_formula_sum   'In3 Ga1 N4'
_cell_volume   119.97197576
_cell_formula_units_Z   1
loop_
 _symmetry_equiv_pos_site_id
 _symmetry_equiv_pos_as_xyz
  1  'x, y, z'
loop_
 _atom_site_type_symbol
 _atom_site_label
 _atom_site_symmetry_multiplicity
 _atom_site_fract_x
 _atom_site_fract_y
 _atom_site_fract_z
 _atom_site_occupancy
  In  In0  1  0.33333333  0.66666667  0.25044500  1.0
  In  In1  1  0.00000000  0.00000000  0.99156000  1.0
  In  In2  1  0.00000000  0.00000000  0.50947600  1.0
  Ga  Ga3  1  0.33333333  0.66666667  0.75325900  1.0
  N  N4  1  0.33333333  0.66666667  0.92528200  1.0
  N  N5  1  0.33333333  0.66666667  0.44190000  1.0
  N  N6  1  0.00000000  0.00000000  0.70358800  1.0
  N  N7  1  0.00000000  0.00000000  0.18369200  1.0
