# generated using pymatgen
data_In4SbTe3
_symmetry_space_group_name_H-M   'P 1'
_cell_length_a   6.21888548
_cell_length_b   6.27983936
_cell_length_c   7.64088973
_cell_angle_alpha   114.26413317
_cell_angle_beta   114.01370526
_cell_angle_gamma   89.99896516
_symmetry_Int_Tables_number   1
_chemical_formula_structural   In4SbTe3
_chemical_formula_sum   'In4 Sb1 Te3'
_cell_volume   243.43621357
_cell_formula_units_Z   1
loop_
 _symmetry_equiv_pos_site_id
 _symmetry_equiv_pos_as_xyz
  1  'x, y, z'
loop_
 _atom_site_type_symbol
 _atom_site_label
 _atom_site_symmetry_multiplicity
 _atom_site_fract_x
 _atom_site_fract_y
 _atom_site_fract_z
 _atom_site_occupancy
  In  In0  1  0.99734400  0.99591500  1.00000000  1.0
  In  In1  1  0.49557300  0.50382200  1.00000000  1.0
  In  In2  1  0.24822800  0.75087000  0.50420900  1.0
  In  In3  1  0.74401900  0.24666100  0.49579100  1.0
  Sb  Sb4  1  0.49731000  0.00081800  1.00000000  1.0
  Te  Te5  1  0.25440100  0.24848700  0.50327000  1.0
  Te  Te6  1  0.75113100  0.74521700  0.49673000  1.0
  Te  Te7  1  0.99653100  0.49505600  1.00000000  1.0
