# generated using pymatgen
data_In4SbTe3
_symmetry_space_group_name_H-M   'P 1'
_cell_length_a   6.21888574
_cell_length_b   6.27983925
_cell_length_c   7.63835360
_cell_angle_alpha   65.74622938
_cell_angle_beta   66.00989901
_cell_angle_gamma   89.99897362
_symmetry_Int_Tables_number   1
_chemical_formula_structural   In4SbTe3
_chemical_formula_sum   'In4 Sb1 Te3'
_cell_volume   243.43614615
_cell_formula_units_Z   1
loop_
 _symmetry_equiv_pos_site_id
 _symmetry_equiv_pos_as_xyz
  1  'x, y, z'
loop_
 _atom_site_type_symbol
 _atom_site_label
 _atom_site_symmetry_multiplicity
 _atom_site_fract_x
 _atom_site_fract_y
 _atom_site_fract_z
 _atom_site_occupancy
  In  In0  1  0.99943300  0.00086200  0.00441600  1.0
  In  In1  1  0.50197400  0.49372500  0.00287600  1.0
  In  In2  1  0.25395000  0.75130800  0.49782100  1.0
  In  In3  1  0.74238000  0.25115400  0.50598500  1.0
  Sb  Sb4  1  0.50065900  0.99715100  0.00203100  1.0
  Te  Te5  1  0.24683900  0.25275300  0.49876000  1.0
  Te  Te6  1  0.74686100  0.75138600  0.50342400  1.0
  Te  Te7  1  0.00186500  0.50334000  0.00117900  1.0
