# generated using pymatgen
data_InAgSe2
_symmetry_space_group_name_H-M   'P 1'
_cell_length_a   6.21819800
_cell_length_b   6.21819800
_cell_length_c   7.44295036
_cell_angle_alpha   114.69097729
_cell_angle_beta   114.69097730
_cell_angle_gamma   90.00000000
_symmetry_Int_Tables_number   1
_chemical_formula_structural   InAgSe2
_chemical_formula_sum   'In2 Ag2 Se4'
_cell_volume   232.20370917
_cell_formula_units_Z   2
loop_
 _symmetry_equiv_pos_site_id
 _symmetry_equiv_pos_as_xyz
  1  'x, y, z'
loop_
 _atom_site_type_symbol
 _atom_site_label
 _atom_site_symmetry_multiplicity
 _atom_site_fract_x
 _atom_site_fract_y
 _atom_site_fract_z
 _atom_site_occupancy
  In  In0  1  0.50000000  0.50000000  0.00000000  1.0
  In  In1  1  0.25000000  0.75000000  0.50000000  1.0
  Ag  Ag2  1  0.75000000  0.25000000  0.50000000  1.0
  Ag  Ag3  1  0.00000000  0.00000000  0.00000000  1.0
  Se  Se4  1  0.87500000  0.37927100  0.25000000  1.0
  Se  Se5  1  0.12927100  0.12500000  0.75000000  1.0
  Se  Se6  1  0.37500000  0.87072900  0.25000000  1.0
  Se  Se7  1  0.62072900  0.62500000  0.75000000  1.0
