# generated using pymatgen
data_InAgSnSe4
_symmetry_space_group_name_H-M   'P 1'
_cell_length_a   6.02806600
_cell_length_b   6.02806600
_cell_length_c   7.13759980
_cell_angle_alpha   114.97832826
_cell_angle_beta   114.97832826
_cell_angle_gamma   90.00000000
_symmetry_Int_Tables_number   1
_chemical_formula_structural   InAgSnSe4
_chemical_formula_sum   'In1 Ag1 Sn1 Se4'
_cell_volume   208.03555110
_cell_formula_units_Z   1
loop_
 _symmetry_equiv_pos_site_id
 _symmetry_equiv_pos_as_xyz
  1  'x, y, z'
loop_
 _atom_site_type_symbol
 _atom_site_label
 _atom_site_symmetry_multiplicity
 _atom_site_fract_x
 _atom_site_fract_y
 _atom_site_fract_z
 _atom_site_occupancy
  In  In0  1  0.50000000  0.50000000  0.00000000  1.0
  Ag  Ag1  1  0.25000000  0.75000000  0.50000000  1.0
  Sn  Sn2  1  0.75000000  0.25000000  0.50000000  1.0
  Se  Se3  1  0.10887700  0.64661600  0.77127200  1.0
  Se  Se4  1  0.66239500  0.12465600  0.77127200  1.0
  Se  Se5  1  0.35338400  0.33760500  0.22872800  1.0
  Se  Se6  1  0.87534400  0.89112300  0.22872800  1.0
