# generated using pymatgen
data_InBr
_symmetry_space_group_name_H-M   'P 1'
_cell_length_a   4.61099800
_cell_length_b   4.69258300
_cell_length_c   6.71714265
_cell_angle_alpha   90.00000000
_cell_angle_beta   110.07355083
_cell_angle_gamma   90.00000000
_symmetry_Int_Tables_number   1
_chemical_formula_structural   InBr
_chemical_formula_sum   'In2 Br2'
_cell_volume   136.51298527
_cell_formula_units_Z   2
loop_
 _symmetry_equiv_pos_site_id
 _symmetry_equiv_pos_as_xyz
  1  'x, y, z'
loop_
 _atom_site_type_symbol
 _atom_site_label
 _atom_site_symmetry_multiplicity
 _atom_site_fract_x
 _atom_site_fract_y
 _atom_site_fract_z
 _atom_site_occupancy
  In  In0  1  0.39045200  0.75000000  0.78090400  1.0
  In  In1  1  0.60954800  0.25000000  0.21909600  1.0
  Br  Br2  1  0.14854500  0.75000000  0.29709000  1.0
  Br  Br3  1  0.85145500  0.25000000  0.70291000  1.0
