# generated using pymatgen
data_InGaP2
_symmetry_space_group_name_H-M   'P 1'
_cell_length_a   4.05474306
_cell_length_b   4.05474306
_cell_length_c   7.03525532
_cell_angle_alpha   73.25138650
_cell_angle_beta   73.25138650
_cell_angle_gamma   60.00001533
_symmetry_Int_Tables_number   1
_chemical_formula_structural   InGaP2
_chemical_formula_sum   'In1 Ga1 P2'
_cell_volume   94.46159695
_cell_formula_units_Z   1
loop_
 _symmetry_equiv_pos_site_id
 _symmetry_equiv_pos_as_xyz
  1  'x, y, z'
loop_
 _atom_site_type_symbol
 _atom_site_label
 _atom_site_symmetry_multiplicity
 _atom_site_fract_x
 _atom_site_fract_y
 _atom_site_fract_z
 _atom_site_occupancy
  In  In0  1  0.50024700  0.50024700  0.49925900  1.0
  Ga  Ga1  1  0.00021900  0.00021900  0.99934300  1.0
  P  P2  1  0.11957500  0.11957500  0.64127500  1.0
  P  P3  1  0.62995800  0.62995800  0.11012600  1.0
