# generated using pymatgen
data_InTe5Pb4
_symmetry_space_group_name_H-M   'P 1'
_cell_length_a   4.59926200
_cell_length_b   4.59926200
_cell_length_c   16.88059915
_cell_angle_alpha   97.82970622
_cell_angle_beta   97.82970623
_cell_angle_gamma   89.99999997
_symmetry_Int_Tables_number   1
_chemical_formula_structural   InTe5Pb4
_chemical_formula_sum   'In1 Te5 Pb4'
_cell_volume   350.38940107
_cell_formula_units_Z   1
loop_
 _symmetry_equiv_pos_site_id
 _symmetry_equiv_pos_as_xyz
  1  'x, y, z'
loop_
 _atom_site_type_symbol
 _atom_site_label
 _atom_site_symmetry_multiplicity
 _atom_site_fract_x
 _atom_site_fract_y
 _atom_site_fract_z
 _atom_site_occupancy
  In  In0  1  0.00000000  0.00000000  0.00000000  1.0
  Te  Te1  1  0.50000000  0.50000000  0.00000000  1.0
  Te  Te2  1  0.69991900  0.69991900  0.39983800  1.0
  Te  Te3  1  0.09950000  0.09950000  0.19900000  1.0
  Te  Te4  1  0.90050000  0.90050000  0.80100000  1.0
  Te  Te5  1  0.30008100  0.30008100  0.60016200  1.0
  Pb  Pb6  1  0.40012500  0.40012500  0.80025000  1.0
  Pb  Pb7  1  0.80015800  0.80015800  0.60031600  1.0
  Pb  Pb8  1  0.19984200  0.19984200  0.39968400  1.0
  Pb  Pb9  1  0.59987500  0.59987500  0.19975000  1.0
