# generated using pymatgen
data_K2Ag4S3
_symmetry_space_group_name_H-M   'P 1'
_cell_length_a   4.30274000
_cell_length_b   9.17620854
_cell_length_c   11.74111795
_cell_angle_alpha   107.90375301
_cell_angle_beta   90.00000000
_cell_angle_gamma   103.55925517
_symmetry_Int_Tables_number   1
_chemical_formula_structural   K2Ag4S3
_chemical_formula_sum   'K4 Ag8 S6'
_cell_volume   427.52520564
_cell_formula_units_Z   2
loop_
 _symmetry_equiv_pos_site_id
 _symmetry_equiv_pos_as_xyz
  1  'x, y, z'
loop_
 _atom_site_type_symbol
 _atom_site_label
 _atom_site_symmetry_multiplicity
 _atom_site_fract_x
 _atom_site_fract_y
 _atom_site_fract_z
 _atom_site_occupancy
  K  K0  1  0.81419400  0.62838800  0.65855200  1.0
  K  K1  1  0.18580600  0.37161200  0.34144800  1.0
  K  K2  1  0.66784700  0.33569400  0.84056700  1.0
  K  K3  1  0.33215300  0.66430600  0.15943300  1.0
  Ag  Ag4  1  0.59293700  0.18587400  0.50962400  1.0
  Ag  Ag5  1  0.40706300  0.81412600  0.49037600  1.0
  Ag  Ag6  1  0.58992900  0.17985800  0.08627800  1.0
  Ag  Ag7  1  0.97735600  0.95471200  0.36696500  1.0
  Ag  Ag8  1  0.02264400  0.04528800  0.63303500  1.0
  Ag  Ag9  1  0.98547000  0.97094000  0.12161800  1.0
  Ag  Ag10  1  0.01453000  0.02906000  0.87838200  1.0
  Ag  Ag11  1  0.41007100  0.82014200  0.91372200  1.0
  S  S12  1  0.53250300  0.06500600  0.27405300  1.0
  S  S13  1  0.14576700  0.29153400  0.04197100  1.0
  S  S14  1  0.85423300  0.70846600  0.95802900  1.0
  S  S15  1  0.16047400  0.32094800  0.61219400  1.0
  S  S16  1  0.46749700  0.93499400  0.72594700  1.0
  S  S17  1  0.83952600  0.67905200  0.38780600  1.0
