# generated using pymatgen
data_K2CuF4
_symmetry_space_group_name_H-M   'P 1'
_cell_length_a   3.91227500
_cell_length_b   4.44378800
_cell_length_c   6.57649609
_cell_angle_alpha   70.25383200
_cell_angle_beta   90.00000000
_cell_angle_gamma   90.00000000
_symmetry_Int_Tables_number   1
_chemical_formula_structural   K2CuF4
_chemical_formula_sum   'K2 Cu1 F4'
_cell_volume   107.61146684
_cell_formula_units_Z   1
loop_
 _symmetry_equiv_pos_site_id
 _symmetry_equiv_pos_as_xyz
  1  'x, y, z'
loop_
 _atom_site_type_symbol
 _atom_site_label
 _atom_site_symmetry_multiplicity
 _atom_site_fract_x
 _atom_site_fract_y
 _atom_site_fract_z
 _atom_site_occupancy
  K  K0  1  0.50000000  0.64766200  0.70467600  1.0
  K  K1  1  0.50000000  0.35233800  0.29532400  1.0
  Cu  Cu2  1  0.00000000  0.00000000  0.00000000  1.0
  F  F3  1  0.00000000  0.50000000  1.00000000  1.0
  F  F4  1  0.50000000  0.00000000  0.00000000  1.0
  F  F5  1  1.00000000  0.84133000  0.31734000  1.0
  F  F6  1  0.00000000  0.15867000  0.68266000  1.0
