# generated using pymatgen
data_K2Ho4Cu4S9
_symmetry_space_group_name_H-M   'P 1'
_cell_length_a   3.94021400
_cell_length_b   7.14038971
_cell_length_c   15.12603133
_cell_angle_alpha   82.41263504
_cell_angle_beta   82.51618472
_cell_angle_gamma   73.98373113
_symmetry_Int_Tables_number   1
_chemical_formula_structural   K2Ho4Cu4S9
_chemical_formula_sum   'K2 Ho4 Cu4 S9'
_cell_volume   403.49503963
_cell_formula_units_Z   1
loop_
 _symmetry_equiv_pos_site_id
 _symmetry_equiv_pos_as_xyz
  1  'x, y, z'
loop_
 _atom_site_type_symbol
 _atom_site_label
 _atom_site_symmetry_multiplicity
 _atom_site_fract_x
 _atom_site_fract_y
 _atom_site_fract_z
 _atom_site_occupancy
  K  K0  1  0.97093700  0.28859300  0.76953300  1.0
  K  K1  1  0.02906300  0.71140700  0.23046700  1.0
  Ho  Ho2  1  0.65456100  0.74512100  0.94575700  1.0
  Ho  Ho3  1  0.23336400  0.13825500  0.39501700  1.0
  Ho  Ho4  1  0.34543900  0.25487900  0.05424300  1.0
  Ho  Ho5  1  0.76663600  0.86174500  0.60498300  1.0
  Cu  Cu6  1  0.75415900  0.26310200  0.22858000  1.0
  Cu  Cu7  1  0.56793300  0.32258500  0.54154900  1.0
  Cu  Cu8  1  0.24584100  0.73689800  0.77142000  1.0
  Cu  Cu9  1  0.43206700  0.67741500  0.45845100  1.0
  S  S10  1  0.35049600  0.07788100  0.22112700  1.0
  S  S11  1  0.64950400  0.92211900  0.77887300  1.0
  S  S12  1  0.38993100  0.59298700  0.62715100  1.0
  S  S13  1  0.61006900  0.40701300  0.37284900  1.0
  S  S14  1  0.70042000  0.49650200  0.10265800  1.0
  S  S15  1  0.13874700  0.14698300  0.57552300  1.0
  S  S16  1  0.00000000  0.00000000  0.00000000  1.0
  S  S17  1  0.29958000  0.50349800  0.89734200  1.0
  S  S18  1  0.86125300  0.85301700  0.42447700  1.0
