# generated using pymatgen
data_K2NbCuS4
_symmetry_space_group_name_H-M   'P 1'
_cell_length_a   5.58222600
_cell_length_b   7.24178097
_cell_length_c   12.06708849
_cell_angle_alpha   84.88546086
_cell_angle_beta   76.62640207
_cell_angle_gamma   67.33030509
_symmetry_Int_Tables_number   1
_chemical_formula_structural   K2NbCuS4
_chemical_formula_sum   'K4 Nb2 Cu2 S8'
_cell_volume   437.92127294
_cell_formula_units_Z   2
loop_
 _symmetry_equiv_pos_site_id
 _symmetry_equiv_pos_as_xyz
  1  'x, y, z'
loop_
 _atom_site_type_symbol
 _atom_site_label
 _atom_site_symmetry_multiplicity
 _atom_site_fract_x
 _atom_site_fract_y
 _atom_site_fract_z
 _atom_site_occupancy
  K  K0  1  0.67852200  0.00000000  0.64295600  1.0
  K  K1  1  0.32147800  0.00000000  0.35704400  1.0
  K  K2  1  0.07147800  0.50000000  0.85704400  1.0
  K  K3  1  0.42852200  0.50000000  0.14295600  1.0
  Nb  Nb4  1  0.50000000  0.00000000  1.00000000  1.0
  Nb  Nb5  1  0.25000000  0.50000000  0.50000000  1.0
  Cu  Cu6  1  0.00000000  0.00000000  0.00000000  1.0
  Cu  Cu7  1  0.75000000  0.50000000  0.50000000  1.0
  S  S8  1  0.41100000  0.80088500  0.88939200  1.0
  S  S9  1  0.10127800  0.19911400  0.11060700  1.0
  S  S10  1  0.96188400  0.69911500  0.38939300  1.0
  S  S11  1  0.05039100  0.30088600  0.61060800  1.0
  S  S12  1  0.33900000  0.69911500  0.61060800  1.0
  S  S13  1  0.64872200  0.30088600  0.38939300  1.0
  S  S14  1  0.78811600  0.80088500  0.11060700  1.0
  S  S15  1  0.69960900  0.19911400  0.88939200  1.0
