# generated using pymatgen
data_K2PdO2
_symmetry_space_group_name_H-M   'P 1'
_cell_length_a   3.18572800
_cell_length_b   5.55718009
_cell_length_c   5.55718009
_cell_angle_alpha   67.11479587
_cell_angle_beta   73.34359187
_cell_angle_gamma   73.34359188
_symmetry_Int_Tables_number   1
_chemical_formula_structural   K2PdO2
_chemical_formula_sum   'K2 Pd1 O2'
_cell_volume   85.10805083
_cell_formula_units_Z   1
loop_
 _symmetry_equiv_pos_site_id
 _symmetry_equiv_pos_as_xyz
  1  'x, y, z'
loop_
 _atom_site_type_symbol
 _atom_site_label
 _atom_site_symmetry_multiplicity
 _atom_site_fract_x
 _atom_site_fract_y
 _atom_site_fract_z
 _atom_site_occupancy
  K  K0  1  0.82460600  0.67539400  0.67539400  1.0
  K  K1  1  0.17539400  0.32460600  0.32460600  1.0
  Pd  Pd2  1  0.00000000  0.00000000  0.00000000  1.0
  O  O3  1  0.50000000  0.21962700  0.78037300  1.0
  O  O4  1  0.50000000  0.78037300  0.21962700  1.0
