# generated using pymatgen
data_K2SrCl4
_symmetry_space_group_name_H-M   'P 1'
_cell_length_a   7.90442181
_cell_length_b   8.05476797
_cell_length_c   8.05476797
_cell_angle_alpha   72.51116690
_cell_angle_beta   70.58698106
_cell_angle_gamma   109.41301894
_symmetry_Int_Tables_number   1
_chemical_formula_structural   K2SrCl4
_chemical_formula_sum   'K4 Sr2 Cl8'
_cell_volume   404.56724889
_cell_formula_units_Z   2
loop_
 _symmetry_equiv_pos_site_id
 _symmetry_equiv_pos_as_xyz
  1  'x, y, z'
loop_
 _atom_site_type_symbol
 _atom_site_label
 _atom_site_symmetry_multiplicity
 _atom_site_fract_x
 _atom_site_fract_y
 _atom_site_fract_z
 _atom_site_occupancy
  K  K0  1  0.39077800  0.24641300  0.35289900  1.0
  K  K1  1  0.61732400  0.86307200  0.24968000  1.0
  K  K2  1  0.89077800  0.64710100  0.75358700  1.0
  K  K3  1  0.11732400  0.75032000  0.13692800  1.0
  Sr  Sr4  1  0.75758900  0.14084500  0.61887600  1.0
  Sr  Sr5  1  0.25758900  0.38112400  0.85915500  1.0
  Cl  Cl6  1  0.13330700  0.48727300  0.51910800  1.0
  Cl  Cl7  1  0.48481100  0.62719800  0.99603100  1.0
  Cl  Cl8  1  0.99591700  0.02200700  0.85315500  1.0
  Cl  Cl9  1  0.98481100  0.00396900  0.37280200  1.0
  Cl  Cl10  1  0.63330700  0.48089200  0.51272700  1.0
  Cl  Cl11  1  0.49591700  0.14684500  0.97799300  1.0
  Cl  Cl12  1  0.38457400  0.86875700  0.63721600  1.0
  Cl  Cl13  1  0.88457400  0.36278400  0.13124300  1.0
