# generated using pymatgen
data_K2SrBe2F8
_symmetry_space_group_name_H-M   'P 1'
_cell_length_a   5.49422564
_cell_length_b   5.49422564
_cell_length_c   7.60743864
_cell_angle_alpha   68.83169727
_cell_angle_beta   68.83169727
_cell_angle_gamma   60.00000436
_symmetry_Int_Tables_number   1
_chemical_formula_structural   K2SrBe2F8
_chemical_formula_sum   'K2 Sr1 Be2 F8'
_cell_volume   180.76208053
_cell_formula_units_Z   1
loop_
 _symmetry_equiv_pos_site_id
 _symmetry_equiv_pos_as_xyz
  1  'x, y, z'
loop_
 _atom_site_type_symbol
 _atom_site_label
 _atom_site_symmetry_multiplicity
 _atom_site_fract_x
 _atom_site_fract_y
 _atom_site_fract_z
 _atom_site_occupancy
  K  K0  1  0.20226300  0.20226300  0.39321100  1.0
  K  K1  1  0.79773700  0.79773700  0.60678900  1.0
  Sr  Sr2  1  0.00000000  0.00000000  0.00000000  1.0
  Be  Be3  1  0.59861600  0.59861600  0.20415200  1.0
  Be  Be4  1  0.40138400  0.40138400  0.79584800  1.0
  F  F5  1  0.26154000  0.73058700  0.27728600  1.0
  F  F6  1  0.73058700  0.26154000  0.27728600  1.0
  F  F7  1  0.73058700  0.73058700  0.27728600  1.0
  F  F8  1  0.32662100  0.32662100  0.02013700  1.0
  F  F9  1  0.67337900  0.67337900  0.97986300  1.0
  F  F10  1  0.26941300  0.73846000  0.72271400  1.0
  F  F11  1  0.26941300  0.26941300  0.72271400  1.0
  F  F12  1  0.73846000  0.26941300  0.72271400  1.0
