# generated using pymatgen
data_K2VCuS4
_symmetry_space_group_name_H-M   'P 1'
_cell_length_a   5.42875400
_cell_length_b   7.09938162
_cell_length_c   11.81425633
_cell_angle_alpha   84.96039863
_cell_angle_beta   76.71738919
_cell_angle_gamma   67.52130190
_symmetry_Int_Tables_number   1
_chemical_formula_structural   K2VCuS4
_chemical_formula_sum   'K4 V2 Cu2 S8'
_cell_volume   409.48035832
_cell_formula_units_Z   2
loop_
 _symmetry_equiv_pos_site_id
 _symmetry_equiv_pos_as_xyz
  1  'x, y, z'
loop_
 _atom_site_type_symbol
 _atom_site_label
 _atom_site_symmetry_multiplicity
 _atom_site_fract_x
 _atom_site_fract_y
 _atom_site_fract_z
 _atom_site_occupancy
  K  K0  1  0.67880800  0.00000000  0.64238400  1.0
  K  K1  1  0.42880800  0.50000000  0.14238400  1.0
  K  K2  1  0.32119200  0.00000000  0.35761600  1.0
  K  K3  1  0.07119200  0.50000000  0.85761600  1.0
  V  V4  1  0.25000000  0.50000000  0.50000000  1.0
  V  V5  1  0.50000000  1.00000000  0.00000000  1.0
  Cu  Cu6  1  0.00000000  0.00000000  0.00000000  1.0
  Cu  Cu7  1  0.75000000  0.50000000  0.50000000  1.0
  S  S8  1  0.06168000  0.30623200  0.60885200  1.0
  S  S9  1  0.68832000  0.19376800  0.89114800  1.0
  S  S10  1  0.42053300  0.80623100  0.89114800  1.0
  S  S11  1  0.11791300  0.19376800  0.10885100  1.0
  S  S12  1  0.97676300  0.69376900  0.39114900  1.0
  S  S13  1  0.63208700  0.30623200  0.39114900  1.0
  S  S14  1  0.32946700  0.69376900  0.60885200  1.0
  S  S15  1  0.77323700  0.80623100  0.10885100  1.0
