# generated using pymatgen
data_K3B6BrO10
_symmetry_space_group_name_H-M   'P 1'
_cell_length_a   6.62621122
_cell_length_b   6.62621122
_cell_length_c   6.62621159
_cell_angle_alpha   100.86405373
_cell_angle_beta   100.86405373
_cell_angle_gamma   100.86406361
_symmetry_Int_Tables_number   1
_chemical_formula_structural   K3B6BrO10
_chemical_formula_sum   'K3 B6 Br1 O10'
_cell_volume   272.92661721
_cell_formula_units_Z   1
loop_
 _symmetry_equiv_pos_site_id
 _symmetry_equiv_pos_as_xyz
  1  'x, y, z'
loop_
 _atom_site_type_symbol
 _atom_site_label
 _atom_site_symmetry_multiplicity
 _atom_site_fract_x
 _atom_site_fract_y
 _atom_site_fract_z
 _atom_site_occupancy
  K  K0  1  0.07003900  0.07003900  0.52816800  1.0
  K  K1  1  0.52816800  0.07003900  0.07003900  1.0
  K  K2  1  0.07003900  0.52816800  0.07003900  1.0
  B  B3  1  0.64117800  0.64117800  0.37882200  1.0
  B  B4  1  0.37882200  0.64117800  0.64117800  1.0
  B  B5  1  0.64117800  0.37882200  0.64117800  1.0
  B  B6  1  0.96879100  0.52168200  0.52168200  1.0
  B  B7  1  0.52168200  0.52168200  0.96879100  1.0
  B  B8  1  0.52168200  0.96879100  0.52168200  1.0
  Br  Br9  1  0.00535200  0.00535200  0.00535200  1.0
  O  O10  1  0.51324000  0.17417400  0.51324000  1.0
  O  O11  1  0.55678500  0.55678500  0.55678500  1.0
  O  O12  1  0.17417400  0.51324000  0.51324000  1.0
  O  O13  1  0.51324000  0.51324000  0.17417400  1.0
  O  O14  1  0.63373900  0.86488700  0.39998800  1.0
  O  O15  1  0.86488700  0.39998800  0.63373900  1.0
  O  O16  1  0.39998800  0.63373900  0.86488700  1.0
  O  O17  1  0.86488700  0.63373900  0.39998800  1.0
  O  O18  1  0.63373900  0.39998800  0.86488700  1.0
  O  O19  1  0.39998800  0.86488700  0.63373900  1.0
