# generated using pymatgen
data_K3Co2F7
_symmetry_space_group_name_H-M   'P 1'
_cell_length_a   4.07342800
_cell_length_b   4.07342800
_cell_length_c   11.35779091
_cell_angle_alpha   100.33033338
_cell_angle_beta   100.33033338
_cell_angle_gamma   90.00000001
_symmetry_Int_Tables_number   1
_chemical_formula_structural   K3Co2F7
_chemical_formula_sum   'K3 Co2 F7'
_cell_volume   182.29683681
_cell_formula_units_Z   1
loop_
 _symmetry_equiv_pos_site_id
 _symmetry_equiv_pos_as_xyz
  1  'x, y, z'
loop_
 _atom_site_type_symbol
 _atom_site_label
 _atom_site_symmetry_multiplicity
 _atom_site_fract_x
 _atom_site_fract_y
 _atom_site_fract_z
 _atom_site_occupancy
  K  K0  1  0.68640500  0.68640500  0.37281000  1.0
  K  K1  1  0.50000000  0.50000000  0.00000000  1.0
  K  K2  1  0.31359500  0.31359500  0.62719000  1.0
  Co  Co3  1  0.09642500  0.09642500  0.19285000  1.0
  Co  Co4  1  0.90357500  0.90357500  0.80715000  1.0
  F  F5  1  0.09519300  0.59519300  0.19038600  1.0
  F  F6  1  0.80790100  0.80790100  0.61580200  1.0
  F  F7  1  0.40480700  0.90480700  0.80961400  1.0
  F  F8  1  0.90480700  0.40480700  0.80961400  1.0
  F  F9  1  0.00000000  0.00000000  0.00000000  1.0
  F  F10  1  0.19209900  0.19209900  0.38419800  1.0
  F  F11  1  0.59519300  0.09519300  0.19038600  1.0
