# generated using pymatgen
data_K3GdF6
_symmetry_space_group_name_H-M   'P 1'
_cell_length_a   6.44399300
_cell_length_b   6.68886200
_cell_length_c   9.21982048
_cell_angle_alpha   90.00000000
_cell_angle_beta   91.03851646
_cell_angle_gamma   90.00000000
_symmetry_Int_Tables_number   1
_chemical_formula_structural   K3GdF6
_chemical_formula_sum   'K6 Gd2 F12'
_cell_volume   397.33645845
_cell_formula_units_Z   2
loop_
 _symmetry_equiv_pos_site_id
 _symmetry_equiv_pos_as_xyz
  1  'x, y, z'
loop_
 _atom_site_type_symbol
 _atom_site_label
 _atom_site_symmetry_multiplicity
 _atom_site_fract_x
 _atom_site_fract_y
 _atom_site_fract_z
 _atom_site_occupancy
  K  K0  1  0.51746500  0.05178900  0.24183000  1.0
  K  K1  1  0.98253500  0.55178900  0.25817000  1.0
  K  K2  1  0.48253500  0.94821100  0.75817000  1.0
  K  K3  1  0.01746500  0.44821100  0.74183000  1.0
  K  K4  1  0.00000000  0.00000000  0.50000000  1.0
  K  K5  1  0.50000000  0.50000000  1.00000000  1.0
  Gd  Gd6  1  0.50000000  0.50000000  0.50000000  1.0
  Gd  Gd7  1  0.00000000  0.00000000  0.00000000  1.0
  F  F8  1  0.87883500  0.06616800  0.77551600  1.0
  F  F9  1  0.62116500  0.56616800  0.72448400  1.0
  F  F10  1  0.12116500  0.93383200  0.22448400  1.0
  F  F11  1  0.37883500  0.43383200  0.27551600  1.0
  F  F12  1  0.82848200  0.27075100  0.07799900  1.0
  F  F13  1  0.67151800  0.77075100  0.42200100  1.0
  F  F14  1  0.17151800  0.72924900  0.92200100  1.0
  F  F15  1  0.32848200  0.22924900  0.57799900  1.0
  F  F16  1  0.21799600  0.67861300  0.55102200  1.0
  F  F17  1  0.28200400  0.17861300  0.94897800  1.0
  F  F18  1  0.78200400  0.32138700  0.44897800  1.0
  F  F19  1  0.71799600  0.82138700  0.05102200  1.0
