# generated using pymatgen
data_K3HoV2O8
_symmetry_space_group_name_H-M   'P 1'
_cell_length_a   6.01780200
_cell_length_b   6.01779097
_cell_length_c   7.84897200
_cell_angle_alpha   90.00299533
_cell_angle_beta   90.00246853
_cell_angle_gamma   60.00117388
_symmetry_Int_Tables_number   1
_chemical_formula_structural   K3HoV2O8
_chemical_formula_sum   'K3 Ho1 V2 O8'
_cell_volume   246.16343336
_cell_formula_units_Z   1
loop_
 _symmetry_equiv_pos_site_id
 _symmetry_equiv_pos_as_xyz
  1  'x, y, z'
loop_
 _atom_site_type_symbol
 _atom_site_label
 _atom_site_symmetry_multiplicity
 _atom_site_fract_x
 _atom_site_fract_y
 _atom_site_fract_z
 _atom_site_occupancy
  K  K0  1  0.66666667  0.66666667  0.29473900  1.0
  K  K1  1  0.33333333  0.33329067  0.70526100  1.0
  K  K2  1  0.00000000  0.00000000  0.00000000  1.0
  Ho  Ho3  1  0.00000000  0.00000000  0.50000000  1.0
  V  V4  1  0.66666667  0.66666667  0.74506300  1.0
  V  V5  1  0.33333333  0.33333333  0.25493700  1.0
  O  O6  1  0.66666667  0.66666667  0.95925600  1.0
  O  O7  1  0.33333333  0.33327567  0.04074400  1.0
  O  O8  1  0.17397300  0.65211500  0.33129000  1.0
  O  O9  1  0.65211800  0.17388600  0.33128900  1.0
  O  O10  1  0.17389000  0.17397600  0.33130200  1.0
  O  O11  1  0.82602700  0.34788500  0.66871000  1.0
  O  O12  1  0.34788200  0.82611400  0.66871100  1.0
  O  O13  1  0.82611000  0.82602400  0.66869800  1.0
