# generated using pymatgen
data_K3Mn2F7
_symmetry_space_group_name_H-M   'P 1'
_cell_length_a   4.26086600
_cell_length_b   4.26086600
_cell_length_c   11.34772726
_cell_angle_alpha   100.82097740
_cell_angle_beta   100.82097740
_cell_angle_gamma   90.00000001
_symmetry_Int_Tables_number   1
_chemical_formula_structural   K3Mn2F7
_chemical_formula_sum   'K3 Mn2 F7'
_cell_volume   198.62362294
_cell_formula_units_Z   1
loop_
 _symmetry_equiv_pos_site_id
 _symmetry_equiv_pos_as_xyz
  1  'x, y, z'
loop_
 _atom_site_type_symbol
 _atom_site_label
 _atom_site_symmetry_multiplicity
 _atom_site_fract_x
 _atom_site_fract_y
 _atom_site_fract_z
 _atom_site_occupancy
  K  K0  1  0.31462900  0.31462900  0.62925800  1.0
  K  K1  1  0.68537100  0.68537100  0.37074200  1.0
  K  K2  1  0.50000000  0.50000000  1.00000000  1.0
  Mn  Mn3  1  0.09810600  0.09810600  0.19621200  1.0
  Mn  Mn4  1  0.90189400  0.90189400  0.80378800  1.0
  F  F5  1  0.00000000  0.00000000  0.00000000  1.0
  F  F6  1  0.90353400  0.40353400  0.80706800  1.0
  F  F7  1  0.40353400  0.90353400  0.80706800  1.0
  F  F8  1  0.09646600  0.59646600  0.19293200  1.0
  F  F9  1  0.59646600  0.09646600  0.19293200  1.0
  F  F10  1  0.19498300  0.19498300  0.38996600  1.0
  F  F11  1  0.80501700  0.80501700  0.61003400  1.0
