# generated using pymatgen
data_K3Ni2F7
_symmetry_space_group_name_H-M   'P 1'
_cell_length_a   4.07499200
_cell_length_b   4.07499200
_cell_length_c   11.03139286
_cell_angle_alpha   100.64363030
_cell_angle_beta   100.64363030
_cell_angle_gamma   90.00000001
_symmetry_Int_Tables_number   1
_chemical_formula_structural   K3Ni2F7
_chemical_formula_sum   'K3 Ni2 F7'
_cell_volume   176.82297523
_cell_formula_units_Z   1
loop_
 _symmetry_equiv_pos_site_id
 _symmetry_equiv_pos_as_xyz
  1  'x, y, z'
loop_
 _atom_site_type_symbol
 _atom_site_label
 _atom_site_symmetry_multiplicity
 _atom_site_fract_x
 _atom_site_fract_y
 _atom_site_fract_z
 _atom_site_occupancy
  K  K0  1  0.31547300  0.31547300  0.63094600  1.0
  K  K1  1  0.68452700  0.68452700  0.36905400  1.0
  K  K2  1  0.50000000  0.50000000  0.00000000  1.0
  Ni  Ni3  1  0.09631900  0.09631900  0.19263800  1.0
  Ni  Ni4  1  0.90368100  0.90368100  0.80736200  1.0
  F  F5  1  0.00000000  0.00000000  0.00000000  1.0
  F  F6  1  0.90482900  0.40482900  0.80965800  1.0
  F  F7  1  0.40482900  0.90482900  0.80965800  1.0
  F  F8  1  0.09517100  0.59517100  0.19034200  1.0
  F  F9  1  0.59517100  0.09517100  0.19034200  1.0
  F  F10  1  0.19098400  0.19098400  0.38196800  1.0
  F  F11  1  0.80901600  0.80901600  0.61803200  1.0
