# generated using pymatgen
data_K3TlAu5
_symmetry_space_group_name_H-M   'P 1'
_cell_length_a   5.77645600
_cell_length_b   8.58316000
_cell_length_c   11.32900639
_cell_angle_alpha   112.26020440
_cell_angle_beta   104.77008801
_cell_angle_gamma   89.99999999
_symmetry_Int_Tables_number   1
_chemical_formula_structural   K3TlAu5
_chemical_formula_sum   'K6 Tl2 Au10'
_cell_volume   499.72083732
_cell_formula_units_Z   2
loop_
 _symmetry_equiv_pos_site_id
 _symmetry_equiv_pos_as_xyz
  1  'x, y, z'
loop_
 _atom_site_type_symbol
 _atom_site_label
 _atom_site_symmetry_multiplicity
 _atom_site_fract_x
 _atom_site_fract_y
 _atom_site_fract_z
 _atom_site_occupancy
  K  K0  1  0.58638300  0.20533200  0.17276600  1.0
  K  K1  1  0.08638200  0.46743300  0.17276500  1.0
  K  K2  1  0.25000000  0.86914300  0.50000000  1.0
  K  K3  1  0.75000000  0.13085700  0.50000000  1.0
  K  K4  1  0.91361800  0.53256700  0.82723500  1.0
  K  K5  1  0.41361700  0.79466800  0.82723400  1.0
  Tl  Tl6  1  0.75000000  0.58409400  0.50000000  1.0
  Tl  Tl7  1  0.25000000  0.41590600  0.50000000  1.0
  Au  Au8  1  0.50000000  0.50000000  0.00000000  1.0
  Au  Au9  1  0.00000000  0.00000000  0.00000000  1.0
  Au  Au10  1  0.31029100  0.81029100  0.12058200  1.0
  Au  Au11  1  0.81029100  0.81029100  0.12058200  1.0
  Au  Au12  1  0.64381500  0.68650800  0.28763000  1.0
  Au  Au13  1  0.14381500  0.10112200  0.28763000  1.0
  Au  Au14  1  0.85618500  0.89887800  0.71237000  1.0
  Au  Au15  1  0.35618500  0.31349200  0.71237000  1.0
  Au  Au16  1  0.18970900  0.18970900  0.87941800  1.0
  Au  Au17  1  0.68970900  0.18970900  0.87941800  1.0
