# generated using pymatgen
data_K5InPb8
_symmetry_space_group_name_H-M   'P 1'
_cell_length_a   7.06804665
_cell_length_b   7.06804665
_cell_length_c   13.60466203
_cell_angle_alpha   74.94384396
_cell_angle_beta   74.94384396
_cell_angle_gamma   59.99999394
_symmetry_Int_Tables_number   1
_chemical_formula_structural   K5InPb8
_chemical_formula_sum   'K5 In1 Pb8'
_cell_volume   561.49360635
_cell_formula_units_Z   1
loop_
 _symmetry_equiv_pos_site_id
 _symmetry_equiv_pos_as_xyz
  1  'x, y, z'
loop_
 _atom_site_type_symbol
 _atom_site_label
 _atom_site_symmetry_multiplicity
 _atom_site_fract_x
 _atom_site_fract_y
 _atom_site_fract_z
 _atom_site_occupancy
  K  K0  1  0.31807900  0.31807900  0.04576300  1.0
  K  K1  1  0.50000000  0.50000000  0.50000000  1.0
  K  K2  1  0.78017100  0.78017100  0.65948700  1.0
  K  K3  1  0.68192100  0.68192100  0.95423700  1.0
  K  K4  1  0.21982900  0.21982900  0.34051300  1.0
  In  In5  1  0.00000000  0.00000000  0.00000000  1.0
  Pb  Pb6  1  0.77587600  0.77587600  0.19776100  1.0
  Pb  Pb7  1  0.87158000  0.87158000  0.38526000  1.0
  Pb  Pb8  1  0.74951300  0.22412400  0.80223900  1.0
  Pb  Pb9  1  0.77587600  0.25048700  0.19776100  1.0
  Pb  Pb10  1  0.12842000  0.12842000  0.61474000  1.0
  Pb  Pb11  1  0.25048700  0.77587600  0.19776100  1.0
  Pb  Pb12  1  0.22412400  0.74951200  0.80224000  1.0
  Pb  Pb13  1  0.22412400  0.22412400  0.80223900  1.0
