# generated using pymatgen
data_KAuI3
_symmetry_space_group_name_H-M   'P 1'
_cell_length_a   7.46362500
_cell_length_b   9.72657900
_cell_length_c   11.63049079
_cell_angle_alpha   90.00000000
_cell_angle_beta   92.61882920
_cell_angle_gamma   90.00000000
_symmetry_Int_Tables_number   1
_chemical_formula_structural   KAuI3
_chemical_formula_sum   'K4 Au4 I12'
_cell_volume   843.43993566
_cell_formula_units_Z   4
loop_
 _symmetry_equiv_pos_site_id
 _symmetry_equiv_pos_as_xyz
  1  'x, y, z'
loop_
 _atom_site_type_symbol
 _atom_site_label
 _atom_site_symmetry_multiplicity
 _atom_site_fract_x
 _atom_site_fract_y
 _atom_site_fract_z
 _atom_site_occupancy
  K  K0  1  0.56171800  0.88374100  0.74883300  1.0
  K  K1  1  0.93828200  0.38374100  0.75116700  1.0
  K  K2  1  0.43828200  0.11625900  0.25116700  1.0
  K  K3  1  0.06171800  0.61625900  0.24883300  1.0
  Au  Au4  1  0.50000000  0.50000000  0.00000000  1.0
  Au  Au5  1  0.00000000  1.00000000  0.50000000  1.0
  Au  Au6  1  0.50000000  0.50000000  0.50000000  1.0
  Au  Au7  1  0.00000000  0.00000000  0.00000000  1.0
  I  I8  1  0.28865100  0.84914200  0.03522100  1.0
  I  I9  1  0.21134900  0.34914200  0.46477900  1.0
  I  I10  1  0.71134900  0.15085800  0.96477900  1.0
  I  I11  1  0.78865100  0.65085800  0.53522100  1.0
  I  I12  1  0.92656500  0.00705300  0.26804800  1.0
  I  I13  1  0.57343500  0.50705300  0.23195200  1.0
  I  I14  1  0.07343500  0.99294700  0.73195200  1.0
  I  I15  1  0.42656500  0.49294700  0.76804800  1.0
  I  I16  1  0.28919900  0.84188300  0.46823900  1.0
  I  I17  1  0.21080100  0.34188300  0.03176100  1.0
  I  I18  1  0.71080100  0.15811700  0.53176100  1.0
  I  I19  1  0.78919900  0.65811700  0.96823900  1.0
