# generated using pymatgen
data_KBa4Bi3O
_symmetry_space_group_name_H-M   'P 1'
_cell_length_a   9.12931200
_cell_length_b   9.12931200
_cell_length_c   10.68837479
_cell_angle_alpha   115.28159088
_cell_angle_beta   115.28159087
_cell_angle_gamma   90.00000001
_symmetry_Int_Tables_number   1
_chemical_formula_structural   KBa4Bi3O
_chemical_formula_sum   'K2 Ba8 Bi6 O2'
_cell_volume   709.98999368
_cell_formula_units_Z   2
loop_
 _symmetry_equiv_pos_site_id
 _symmetry_equiv_pos_as_xyz
  1  'x, y, z'
loop_
 _atom_site_type_symbol
 _atom_site_label
 _atom_site_symmetry_multiplicity
 _atom_site_fract_x
 _atom_site_fract_y
 _atom_site_fract_z
 _atom_site_occupancy
  K  K0  1  0.00000000  0.00000000  0.00000000  1.0
  K  K1  1  0.50000000  0.50000000  1.00000000  1.0
  Ba  Ba2  1  0.49987400  0.68988800  0.68976200  1.0
  Ba  Ba3  1  0.99987400  0.49987400  0.68976200  1.0
  Ba  Ba4  1  0.18988800  0.99987400  0.68976200  1.0
  Ba  Ba5  1  0.50012600  0.31011200  0.31023800  1.0
  Ba  Ba6  1  0.68988800  0.18988800  0.68976200  1.0
  Ba  Ba7  1  0.81011200  0.00012600  0.31023800  1.0
  Ba  Ba8  1  0.31011200  0.81011200  0.31023800  1.0
  Ba  Ba9  1  0.00012600  0.50012600  0.31023800  1.0
  Bi  Bi10  1  0.37955700  0.87955700  1.00000000  1.0
  Bi  Bi11  1  0.87955700  0.62044300  1.00000000  1.0
  Bi  Bi12  1  0.25000000  0.25000000  0.50000000  1.0
  Bi  Bi13  1  0.75000000  0.75000000  0.50000000  1.0
  Bi  Bi14  1  0.12044300  0.37955700  1.00000000  1.0
  Bi  Bi15  1  0.62044300  0.12044300  1.00000000  1.0
  O  O16  1  0.25000000  0.75000000  0.50000000  1.0
  O  O17  1  0.75000000  0.25000000  0.50000000  1.0
