# generated using pymatgen
data_KFeSn3O8
_symmetry_space_group_name_H-M   'P 1'
_cell_length_a   3.20921600
_cell_length_b   7.59565682
_cell_length_c   7.69198866
_cell_angle_alpha   87.43127723
_cell_angle_beta   77.95922808
_cell_angle_gamma   77.80418773
_symmetry_Int_Tables_number   1
_chemical_formula_structural   KFeSn3O8
_chemical_formula_sum   'K1 Fe1 Sn3 O8'
_cell_volume   179.23698657
_cell_formula_units_Z   1
loop_
 _symmetry_equiv_pos_site_id
 _symmetry_equiv_pos_as_xyz
  1  'x, y, z'
loop_
 _atom_site_type_symbol
 _atom_site_label
 _atom_site_symmetry_multiplicity
 _atom_site_fract_x
 _atom_site_fract_y
 _atom_site_fract_z
 _atom_site_occupancy
  K  K0  1  0.49908800  0.00371900  0.99810500  1.0
  Fe  Fe1  1  0.34942200  0.48652200  0.81463400  1.0
  Sn  Sn2  1  0.65764900  0.51497200  0.16973000  1.0
  Sn  Sn3  1  0.15973500  0.18840000  0.49213000  1.0
  Sn  Sn4  1  0.83615000  0.80730200  0.52039800  1.0
  O  O5  1  0.15176400  0.64994100  0.04653100  1.0
  O  O6  1  0.84910500  0.35557700  0.94621300  1.0
  O  O7  1  0.20079000  0.94953400  0.64888600  1.0
  O  O8  1  0.79647700  0.04667700  0.36036900  1.0
  O  O9  1  0.53885000  0.29523800  0.62706200  1.0
  O  O10  1  0.46019600  0.70649500  0.37311300  1.0
  O  O11  1  0.16532500  0.37730000  0.29205000  1.0
  O  O12  1  0.83545000  0.61832100  0.71077900  1.0
