# generated using pymatgen
data_KHg3
_symmetry_space_group_name_H-M   'P 1'
_cell_length_a   5.76807100
_cell_length_b   7.15052400
_cell_length_c   7.15052362
_cell_angle_alpha   120.00000174
_cell_angle_beta   90.00000000
_cell_angle_gamma   90.00000000
_symmetry_Int_Tables_number   1
_chemical_formula_structural   KHg3
_chemical_formula_sum   'K2 Hg6'
_cell_volume   255.40943455
_cell_formula_units_Z   2
loop_
 _symmetry_equiv_pos_site_id
 _symmetry_equiv_pos_as_xyz
  1  'x, y, z'
loop_
 _atom_site_type_symbol
 _atom_site_label
 _atom_site_symmetry_multiplicity
 _atom_site_fract_x
 _atom_site_fract_y
 _atom_site_fract_z
 _atom_site_occupancy
  K  K0  1  0.75000000  0.33333333  0.66666667  1.0
  K  K1  1  0.25000000  0.66666667  0.33333333  1.0
  Hg  Hg2  1  0.25000000  0.68789200  0.84394600  1.0
  Hg  Hg3  1  0.25000000  0.15605400  0.84394600  1.0
  Hg  Hg4  1  0.75000000  0.84394600  0.68789200  1.0
  Hg  Hg5  1  0.75000000  0.31210800  0.15605400  1.0
  Hg  Hg6  1  0.75000000  0.84394600  0.15605400  1.0
  Hg  Hg7  1  0.25000000  0.15605400  0.31210800  1.0
