# generated using pymatgen
data_KIO3
_symmetry_space_group_name_H-M   'P 1'
_cell_length_a   7.78823300
_cell_length_b   7.79090991
_cell_length_c   7.79154640
_cell_angle_alpha   108.92566555
_cell_angle_beta   108.89264262
_cell_angle_gamma   108.78905435
_symmetry_Int_Tables_number   1
_chemical_formula_structural   KIO3
_chemical_formula_sum   'K4 I4 O12'
_cell_volume   371.83049266
_cell_formula_units_Z   4
loop_
 _symmetry_equiv_pos_site_id
 _symmetry_equiv_pos_as_xyz
  1  'x, y, z'
loop_
 _atom_site_type_symbol
 _atom_site_label
 _atom_site_symmetry_multiplicity
 _atom_site_fract_x
 _atom_site_fract_y
 _atom_site_fract_z
 _atom_site_occupancy
  K  K0  1  0.47069300  0.49903500  0.50678500  1.0
  K  K1  1  0.98543100  0.99836600  0.48635300  1.0
  K  K2  1  0.98851700  0.49320000  0.00237700  1.0
  K  K3  1  0.49048400  0.98012700  0.99978700  1.0
  I  I4  1  0.98234200  0.50842900  0.50560200  1.0
  I  I5  1  0.49254500  0.00299800  0.50571600  1.0
  I  I6  1  0.49300900  0.49170200  0.01158800  1.0
  I  I7  1  0.00091800  0.99893500  0.99775900  1.0
  O  O8  1  0.14506000  0.70299200  0.46231200  1.0
  O  O9  1  0.18537100  0.51161000  0.71221700  1.0
  O  O10  1  0.89775100  0.66125700  0.65917300  1.0
  O  O11  1  0.65026700  0.97195600  0.71534500  1.0
  O  O12  1  0.44759800  0.20577200  0.65338200  1.0
  O  O13  1  0.69506000  0.15635200  0.46432000  1.0
  O  O14  1  0.65967300  0.41240600  0.15766900  1.0
  O  O15  1  0.45243900  0.64839500  0.21326000  1.0
  O  O16  1  0.15616800  0.15958200  0.92029600  1.0
  O  O17  1  0.00908800  0.20159600  0.20931700  1.0
  O  O18  1  0.19132100  0.94362900  0.14920100  1.0
  O  O19  1  0.68836300  0.69916000  0.00844200  1.0
