# generated using pymatgen
data_KLaF4
_symmetry_space_group_name_H-M   'P 1'
_cell_length_a   6.63708847
_cell_length_b   7.62344104
_cell_length_c   7.62344104
_cell_angle_alpha   60.15770598
_cell_angle_beta   64.25993022
_cell_angle_gamma   64.25993022
_symmetry_Int_Tables_number   1
_chemical_formula_structural   KLaF4
_chemical_formula_sum   'K3 La3 F12'
_cell_volume   289.39091751
_cell_formula_units_Z   3
loop_
 _symmetry_equiv_pos_site_id
 _symmetry_equiv_pos_as_xyz
  1  'x, y, z'
loop_
 _atom_site_type_symbol
 _atom_site_label
 _atom_site_symmetry_multiplicity
 _atom_site_fract_x
 _atom_site_fract_y
 _atom_site_fract_z
 _atom_site_occupancy
  K  K0  1  0.33951000  0.92428900  0.42428900  1.0
  K  K1  1  0.33524500  0.40743400  0.90743400  1.0
  K  K2  1  0.66847800  0.08261000  0.58261000  1.0
  La  La3  1  0.00053400  0.99918500  0.00033200  1.0
  La  La4  1  0.00053400  0.50033200  0.49918500  1.0
  La  La5  1  0.66522500  0.58435500  0.08435500  1.0
  F  F6  1  0.23042500  0.24796700  0.74796700  1.0
  F  F7  1  0.24503300  0.75660000  0.25660000  1.0
  F  F8  1  0.77286400  0.86492200  0.36492200  1.0
  F  F9  1  0.74549100  0.37252700  0.87252700  1.0
  F  F10  1  0.99980700  0.13346200  0.63346200  1.0
  F  F11  1  0.00630300  0.62332500  0.12332500  1.0
  F  F12  1  0.64160600  0.50784300  0.44987300  1.0
  F  F13  1  0.64160600  0.94987300  0.00784300  1.0
  F  F14  1  0.40000100  0.79309000  0.85043300  1.0
  F  F15  1  0.40000100  0.35043300  0.29309000  1.0
  F  F16  1  0.95356900  0.22992400  0.17182800  1.0
  F  F17  1  0.95356900  0.67182800  0.72992400  1.0
