# generated using pymatgen
data_KNbCl6
_symmetry_space_group_name_H-M   'P 1'
_cell_length_a   7.33002500
_cell_length_b   7.50744881
_cell_length_c   10.41352207
_cell_angle_alpha   90.00000225
_cell_angle_beta   90.00000001
_cell_angle_gamma   89.99999998
_symmetry_Int_Tables_number   1
_chemical_formula_structural   KNbCl6
_chemical_formula_sum   'K2 Nb2 Cl12'
_cell_volume   573.05390597
_cell_formula_units_Z   2
loop_
 _symmetry_equiv_pos_site_id
 _symmetry_equiv_pos_as_xyz
  1  'x, y, z'
loop_
 _atom_site_type_symbol
 _atom_site_label
 _atom_site_symmetry_multiplicity
 _atom_site_fract_x
 _atom_site_fract_y
 _atom_site_fract_z
 _atom_site_occupancy
  K  K0  1  0.00000000  0.58084900  0.71390200  1.0
  K  K1  1  0.50000000  0.91915200  0.21390200  1.0
  Nb  Nb2  1  0.00000000  0.00924500  0.99861600  1.0
  Nb  Nb3  1  0.50000000  0.49075600  0.49861600  1.0
  Cl  Cl4  1  0.27097100  0.72217400  0.49577700  1.0
  Cl  Cl5  1  0.00000000  0.99911500  0.76934900  1.0
  Cl  Cl6  1  0.23010800  0.22771100  0.99685700  1.0
  Cl  Cl7  1  0.76989200  0.22771000  0.99685800  1.0
  Cl  Cl8  1  0.26989200  0.27229000  0.49685800  1.0
  Cl  Cl9  1  0.50000000  0.49917400  0.72676300  1.0
  Cl  Cl10  1  0.50000000  0.50088400  0.26934900  1.0
  Cl  Cl11  1  0.72902900  0.72217400  0.49577700  1.0
  Cl  Cl12  1  0.22902900  0.77782600  0.99577700  1.0
  Cl  Cl13  1  0.77097100  0.77782600  0.99577700  1.0
  Cl  Cl14  1  0.00000000  0.00082700  0.22676300  1.0
  Cl  Cl15  1  0.73010800  0.27229100  0.49685700  1.0
