# generated using pymatgen
data_KRb2ZrOF5
_symmetry_space_group_name_H-M   'P 1'
_cell_length_a   6.56986000
_cell_length_b   6.60219023
_cell_length_c   6.56986000
_cell_angle_alpha   60.16185618
_cell_angle_beta   90.00000000
_cell_angle_gamma   119.83814382
_symmetry_Int_Tables_number   1
_chemical_formula_structural   KRb2ZrOF5
_chemical_formula_sum   'K1 Rb2 Zr1 O1 F5'
_cell_volume   202.48667880
_cell_formula_units_Z   1
loop_
 _symmetry_equiv_pos_site_id
 _symmetry_equiv_pos_as_xyz
  1  'x, y, z'
loop_
 _atom_site_type_symbol
 _atom_site_label
 _atom_site_symmetry_multiplicity
 _atom_site_fract_x
 _atom_site_fract_y
 _atom_site_fract_z
 _atom_site_occupancy
  K  K0  1  0.49824500  0.99649000  0.50175500  1.0
  Rb  Rb1  1  0.75339100  0.50678200  0.74660900  1.0
  Rb  Rb2  1  0.25339100  0.50678200  0.24660900  1.0
  Zr  Zr3  1  0.01845300  0.03690600  0.98154700  1.0
  O  O4  1  0.21958100  0.43916200  0.78041900  1.0
  F  F5  1  0.21860400  0.98891800  0.78139600  1.0
  F  F6  1  0.21860400  0.98891900  0.22968500  1.0
  F  F7  1  0.77031400  0.98891700  0.78139700  1.0
  F  F8  1  0.77031400  0.98891800  0.22968600  1.0
  F  F9  1  0.77910300  0.55820600  0.22089700  1.0
