# generated using pymatgen
data_KSb
_symmetry_space_group_name_H-M   'P 1'
_cell_length_a   7.08454100
_cell_length_b   7.30612700
_cell_length_c   12.41543359
_cell_angle_alpha   97.17333599
_cell_angle_beta   90.00000000
_cell_angle_gamma   90.00000000
_symmetry_Int_Tables_number   1
_chemical_formula_structural   KSb
_chemical_formula_sum   'K8 Sb8'
_cell_volume   637.59983496
_cell_formula_units_Z   8
loop_
 _symmetry_equiv_pos_site_id
 _symmetry_equiv_pos_as_xyz
  1  'x, y, z'
loop_
 _atom_site_type_symbol
 _atom_site_label
 _atom_site_symmetry_multiplicity
 _atom_site_fract_x
 _atom_site_fract_y
 _atom_site_fract_z
 _atom_site_occupancy
  K  K0  1  0.60167600  0.88841900  0.66977900  1.0
  K  K1  1  0.10167600  0.61158100  0.83022100  1.0
  K  K2  1  0.39832400  0.11158100  0.33022100  1.0
  K  K3  1  0.89832400  0.38841900  0.16977900  1.0
  K  K4  1  0.33394400  0.20910100  0.96556100  1.0
  K  K5  1  0.83394400  0.29089900  0.53443900  1.0
  K  K6  1  0.66605600  0.79089900  0.03443900  1.0
  K  K7  1  0.16605600  0.70910100  0.46556100  1.0
  Sb  Sb8  1  0.10127100  0.03574800  0.71320800  1.0
  Sb  Sb9  1  0.60127100  0.46425200  0.78679200  1.0
  Sb  Sb10  1  0.89872900  0.96425200  0.28679200  1.0
  Sb  Sb11  1  0.39872900  0.53574800  0.21320800  1.0
  Sb  Sb12  1  0.83441400  0.19747700  0.87644600  1.0
  Sb  Sb13  1  0.33441400  0.30252300  0.62355400  1.0
  Sb  Sb14  1  0.16558600  0.80252300  0.12355400  1.0
  Sb  Sb15  1  0.66558600  0.69747700  0.37644600  1.0
