# generated using pymatgen
data_KU2SbSe8
_symmetry_space_group_name_H-M   'P 1'
_cell_length_a   7.11931472
_cell_length_b   7.11931472
_cell_length_c   7.75292939
_cell_angle_alpha   98.79324381
_cell_angle_beta   98.79324381
_cell_angle_gamma   109.52763569
_symmetry_Int_Tables_number   1
_chemical_formula_structural   KU2SbSe8
_chemical_formula_sum   'K1 U2 Sb1 Se8'
_cell_volume   357.11506784
_cell_formula_units_Z   1
loop_
 _symmetry_equiv_pos_site_id
 _symmetry_equiv_pos_as_xyz
  1  'x, y, z'
loop_
 _atom_site_type_symbol
 _atom_site_label
 _atom_site_symmetry_multiplicity
 _atom_site_fract_x
 _atom_site_fract_y
 _atom_site_fract_z
 _atom_site_occupancy
  K  K0  1  0.88382400  0.88382400  0.53548700  1.0
  U  U1  1  0.50029700  0.00016100  0.99956200  1.0
  U  U2  1  0.00016100  0.50029700  0.99956200  1.0
  Sb  Sb3  1  0.42503300  0.42503300  0.69514300  1.0
  Se  Se4  1  0.91943000  0.20245600  0.22799700  1.0
  Se  Se5  1  0.20245600  0.91943000  0.22799700  1.0
  Se  Se6  1  0.22623400  0.22623400  0.90765800  1.0
  Se  Se7  1  0.72922400  0.72922400  0.90984200  1.0
  Se  Se8  1  0.40364800  0.70593000  0.23160000  1.0
  Se  Se9  1  0.70593000  0.40364800  0.23160000  1.0
  Se  Se10  1  0.19041800  0.67637900  0.73351500  1.0
  Se  Se11  1  0.67637900  0.19041800  0.73351500  1.0
