# generated using pymatgen
data_La(CuO2)2
_symmetry_space_group_name_H-M   'P 1'
_cell_length_a   5.92286800
_cell_length_b   6.45246929
_cell_length_c   5.92286800
_cell_angle_alpha   117.32010545
_cell_angle_beta   89.99999999
_cell_angle_gamma   117.32010545
_symmetry_Int_Tables_number   1
_chemical_formula_structural   La(CuO2)2
_chemical_formula_sum   'La2 Cu4 O8'
_cell_volume   172.19484996
_cell_formula_units_Z   2
loop_
 _symmetry_equiv_pos_site_id
 _symmetry_equiv_pos_as_xyz
  1  'x, y, z'
loop_
 _atom_site_type_symbol
 _atom_site_label
 _atom_site_symmetry_multiplicity
 _atom_site_fract_x
 _atom_site_fract_y
 _atom_site_fract_z
 _atom_site_occupancy
  La  La0  1  0.00000000  0.00000000  0.00000000  1.0
  La  La1  1  0.25000000  0.50000000  0.75000000  1.0
  Cu  Cu2  1  0.62500000  0.25000000  0.87500000  1.0
  Cu  Cu3  1  0.62500000  0.25000000  0.37500000  1.0
  Cu  Cu4  1  0.62500000  0.75000000  0.37500000  1.0
  Cu  Cu5  1  0.12500000  0.75000000  0.37500000  1.0
  O  O6  1  0.27197500  0.09909500  0.40457000  1.0
  O  O7  1  0.82712000  0.09909500  0.69452500  1.0
  O  O8  1  0.97802500  0.40090500  0.34543000  1.0
  O  O9  1  0.42288000  0.40090500  0.05547500  1.0
  O  O10  1  0.94452500  0.59909500  0.02197500  1.0
  O  O11  1  0.65457000  0.59909500  0.57712000  1.0
  O  O12  1  0.59543000  0.90090500  0.17288000  1.0
  O  O13  1  0.30547500  0.90090500  0.72802500  1.0
