# generated using pymatgen
data_La(ReSi)2
_symmetry_space_group_name_H-M   'P 1'
_cell_length_a   4.16382600
_cell_length_b   4.25546200
_cell_length_c   10.99129474
_cell_angle_alpha   101.16197522
_cell_angle_beta   100.91862982
_cell_angle_gamma   90.00000002
_symmetry_Int_Tables_number   1
_chemical_formula_structural   La(ReSi)2
_chemical_formula_sum   'La2 Re4 Si4'
_cell_volume   187.47589699
_cell_formula_units_Z   2
loop_
 _symmetry_equiv_pos_site_id
 _symmetry_equiv_pos_as_xyz
  1  'x, y, z'
loop_
 _atom_site_type_symbol
 _atom_site_label
 _atom_site_symmetry_multiplicity
 _atom_site_fract_x
 _atom_site_fract_y
 _atom_site_fract_z
 _atom_site_occupancy
  La  La0  1  0.33668800  0.08668800  0.67337600  1.0
  La  La1  1  0.66331200  0.91331200  0.32662400  1.0
  Re  Re2  1  0.03869700  0.78869700  0.07739400  1.0
  Re  Re3  1  0.46445500  0.71445500  0.92891000  1.0
  Re  Re4  1  0.96130300  0.21130300  0.92260600  1.0
  Re  Re5  1  0.53554500  0.28554500  0.07109000  1.0
  Si  Si6  1  0.22154100  0.47154100  0.44308200  1.0
  Si  Si7  1  0.77845900  0.52845900  0.55691800  1.0
  Si  Si8  1  0.89624300  0.64624300  0.79248600  1.0
  Si  Si9  1  0.10375700  0.35375700  0.20751400  1.0
