# generated using pymatgen
data_La2MgNbO6
_symmetry_space_group_name_H-M   'P 1'
_cell_length_a   5.70928500
_cell_length_b   5.73459000
_cell_length_c   8.03392253
_cell_angle_alpha   90.00000000
_cell_angle_beta   90.06080516
_cell_angle_gamma   90.00000000
_symmetry_Int_Tables_number   1
_chemical_formula_structural   La2MgNbO6
_chemical_formula_sum   'La4 Mg2 Nb2 O12'
_cell_volume   263.03375856
_cell_formula_units_Z   2
loop_
 _symmetry_equiv_pos_site_id
 _symmetry_equiv_pos_as_xyz
  1  'x, y, z'
loop_
 _atom_site_type_symbol
 _atom_site_label
 _atom_site_symmetry_multiplicity
 _atom_site_fract_x
 _atom_site_fract_y
 _atom_site_fract_z
 _atom_site_occupancy
  La  La0  1  0.99030100  0.44375900  0.24916100  1.0
  La  La1  1  0.00969900  0.55624100  0.75083900  1.0
  La  La2  1  0.50969900  0.94375900  0.25083900  1.0
  La  La3  1  0.49030100  0.05624100  0.74916100  1.0
  Mg  Mg4  1  0.00000000  1.00000000  0.50000000  1.0
  Mg  Mg5  1  0.50000000  0.50000000  1.00000000  1.0
  Nb  Nb6  1  0.00000000  0.00000000  0.00000000  1.0
  Nb  Nb7  1  0.50000000  0.50000000  0.50000000  1.0
  O  O8  1  0.79731800  0.70648300  0.05384400  1.0
  O  O9  1  0.20268200  0.29351700  0.94615600  1.0
  O  O10  1  0.70268200  0.20648300  0.44615600  1.0
  O  O11  1  0.29731800  0.79351700  0.55384400  1.0
  O  O12  1  0.70352900  0.19569900  0.04576200  1.0
  O  O13  1  0.29647100  0.80430100  0.95423800  1.0
  O  O14  1  0.79647100  0.69569900  0.45423800  1.0
  O  O15  1  0.20352900  0.30430100  0.54576200  1.0
  O  O16  1  0.09450000  0.01792100  0.24917400  1.0
  O  O17  1  0.90550000  0.98207900  0.75082600  1.0
  O  O18  1  0.40550000  0.51792100  0.25082600  1.0
  O  O19  1  0.59450000  0.48207900  0.74917400  1.0
