# generated using pymatgen
data_La2ReO5
_symmetry_space_group_name_H-M   'P 1'
_cell_length_a   6.05915600
_cell_length_b   7.04223585
_cell_length_c   7.04223585
_cell_angle_alpha   79.33460952
_cell_angle_beta   64.51967335
_cell_angle_gamma   64.51967335
_symmetry_Int_Tables_number   1
_chemical_formula_structural   La2ReO5
_chemical_formula_sum   'La4 Re2 O10'
_cell_volume   244.87923197
_cell_formula_units_Z   2
loop_
 _symmetry_equiv_pos_site_id
 _symmetry_equiv_pos_as_xyz
  1  'x, y, z'
loop_
 _atom_site_type_symbol
 _atom_site_label
 _atom_site_symmetry_multiplicity
 _atom_site_fract_x
 _atom_site_fract_y
 _atom_site_fract_z
 _atom_site_occupancy
  La  La0  1  0.18183100  0.21317400  0.42316400  1.0
  La  La1  1  0.60499400  0.57683700  0.21317400  1.0
  La  La2  1  0.39500600  0.42316300  0.78682600  1.0
  La  La3  1  0.81816900  0.78682600  0.57683600  1.0
  Re  Re4  1  0.18791800  0.00000000  1.00000000  1.0
  Re  Re5  1  0.81208200  1.00000000  1.00000000  1.0
  O  O6  1  0.16299700  0.90756500  0.28345500  1.0
  O  O7  1  0.44645200  0.71654500  0.90756500  1.0
  O  O8  1  0.07056200  0.28345500  0.09243500  1.0
  O  O9  1  0.35401700  0.09243500  0.71654500  1.0
  O  O10  1  0.83700300  0.09243500  0.71654500  1.0
  O  O11  1  0.55354800  0.28345500  0.09243500  1.0
  O  O12  1  0.25000000  0.50000000  0.50000000  1.0
  O  O13  1  0.75000000  0.50000000  0.50000000  1.0
  O  O14  1  0.64598300  0.90756500  0.28345500  1.0
  O  O15  1  0.92943800  0.71654500  0.90756500  1.0
