# generated using pymatgen
data_La2TiCrO6
_symmetry_space_group_name_H-M   'P 1'
_cell_length_a   5.60586935
_cell_length_b   5.72306981
_cell_length_c   7.86503905
_cell_angle_alpha   89.73129183
_cell_angle_beta   88.95321208
_cell_angle_gamma   89.18552597
_symmetry_Int_Tables_number   1
_chemical_formula_structural   La2TiCrO6
_chemical_formula_sum   'La4 Ti2 Cr2 O12'
_cell_volume   252.26225171
_cell_formula_units_Z   2
loop_
 _symmetry_equiv_pos_site_id
 _symmetry_equiv_pos_as_xyz
  1  'x, y, z'
loop_
 _atom_site_type_symbol
 _atom_site_label
 _atom_site_symmetry_multiplicity
 _atom_site_fract_x
 _atom_site_fract_y
 _atom_site_fract_z
 _atom_site_occupancy
  La  La0  1  0.49518500  0.99842900  0.25052100  1.0
  La  La1  1  0.00907400  0.49664600  0.75392000  1.0
  La  La2  1  0.50487800  0.00161300  0.74950500  1.0
  La  La3  1  0.99096100  0.50339500  0.24612000  1.0
  Ti  Ti4  1  0.00001400  0.00002900  0.99997500  1.0
  Ti  Ti5  1  0.50000100  0.50000800  0.50005700  1.0
  Cr  Cr6  1  0.50001300  0.50003200  0.00004800  1.0
  Cr  Cr7  1  0.00000400  0.00002300  0.49993500  1.0
  O  O8  1  0.79139400  0.67033800  0.53615600  1.0
  O  O9  1  0.27383200  0.22857200  0.04242300  1.0
  O  O10  1  0.68764700  0.19759900  0.46878600  1.0
  O  O11  1  0.22631500  0.72394200  0.96548400  1.0
  O  O12  1  0.00315200  0.07342400  0.75622200  1.0
  O  O13  1  0.51804600  0.57557600  0.24884400  1.0
  O  O14  1  0.31229400  0.80245300  0.53116400  1.0
  O  O15  1  0.77369800  0.27606600  0.03453300  1.0
  O  O16  1  0.99668600  0.92631900  0.24361600  1.0
  O  O17  1  0.48198000  0.42447000  0.75122600  1.0
  O  O18  1  0.20863100  0.32966800  0.46386100  1.0
  O  O19  1  0.72619700  0.77139800  0.95760400  1.0
