# generated using pymatgen
data_La2Ti3(AgO5)2
_symmetry_space_group_name_H-M   'P 1'
_cell_length_a   3.86394800
_cell_length_b   3.86394800
_cell_length_c   14.88329339
_cell_angle_alpha   97.45851092
_cell_angle_beta   97.45851091
_cell_angle_gamma   90.00000000
_symmetry_Int_Tables_number   1
_chemical_formula_structural   La2Ti3(AgO5)2
_chemical_formula_sum   'La2 Ti3 Ag2 O10'
_cell_volume   218.43262216
_cell_formula_units_Z   1
loop_
 _symmetry_equiv_pos_site_id
 _symmetry_equiv_pos_as_xyz
  1  'x, y, z'
loop_
 _atom_site_type_symbol
 _atom_site_label
 _atom_site_symmetry_multiplicity
 _atom_site_fract_x
 _atom_site_fract_y
 _atom_site_fract_z
 _atom_site_occupancy
  La  La0  1  0.42574900  0.42574900  0.85149800  1.0
  La  La1  1  0.57425100  0.57425100  0.14850200  1.0
  Ti  Ti2  1  0.85410600  0.85410600  0.70821200  1.0
  Ti  Ti3  1  0.14589400  0.14589400  0.29178800  1.0
  Ti  Ti4  1  0.00000000  0.00000000  0.00000000  1.0
  Ag  Ag5  1  0.28536900  0.28536900  0.57073800  1.0
  Ag  Ag6  1  0.71463100  0.71463100  0.42926200  1.0
  O  O7  1  0.79336100  0.79336100  0.58672200  1.0
  O  O8  1  0.20663900  0.20663900  0.41327800  1.0
  O  O9  1  0.36927600  0.86927600  0.73855200  1.0
  O  O10  1  0.86927600  0.36927600  0.73855200  1.0
  O  O11  1  0.63072400  0.13072400  0.26144800  1.0
  O  O12  1  0.13072400  0.63072400  0.26144800  1.0
  O  O13  1  0.93342700  0.93342700  0.86685400  1.0
  O  O14  1  0.00000000  0.50000000  1.00000000  1.0
  O  O15  1  0.50000000  1.00000000  1.00000000  1.0
  O  O16  1  0.06657300  0.06657300  0.13314600  1.0
