# generated using pymatgen
data_La3(NbN3)2
_symmetry_space_group_name_H-M   'P 1'
_cell_length_a   4.10502200
_cell_length_b   4.10502200
_cell_length_c   10.48422515
_cell_angle_alpha   101.28978772
_cell_angle_beta   101.28978772
_cell_angle_gamma   90.00000002
_symmetry_Int_Tables_number   1
_chemical_formula_structural   La3(NbN3)2
_chemical_formula_sum   'La3 Nb2 N6'
_cell_volume   169.76565119
_cell_formula_units_Z   1
loop_
 _symmetry_equiv_pos_site_id
 _symmetry_equiv_pos_as_xyz
  1  'x, y, z'
loop_
 _atom_site_type_symbol
 _atom_site_label
 _atom_site_symmetry_multiplicity
 _atom_site_fract_x
 _atom_site_fract_y
 _atom_site_fract_z
 _atom_site_occupancy
  La  La0  1  0.00000000  0.00000000  0.00000000  1.0
  La  La1  1  0.82010000  0.82010000  0.64020000  1.0
  La  La2  1  0.17990000  0.17990000  0.35980000  1.0
  Nb  Nb3  1  0.39861500  0.39861500  0.79723000  1.0
  Nb  Nb4  1  0.60138500  0.60138500  0.20277000  1.0
  N  N5  1  0.08446900  0.58446900  0.16893800  1.0
  N  N6  1  0.58446900  0.08446900  0.16893800  1.0
  N  N7  1  0.91553100  0.41553100  0.83106200  1.0
  N  N8  1  0.41553100  0.91553100  0.83106200  1.0
  N  N9  1  0.69879900  0.69879900  0.39759800  1.0
  N  N10  1  0.30120100  0.30120100  0.60240200  1.0
