# generated using pymatgen
data_La3Ge5
_symmetry_space_group_name_H-M   'P 1'
_cell_length_a   6.10621400
_cell_length_b   7.82415443
_cell_length_c   9.64855935
_cell_angle_alpha   82.90721841
_cell_angle_beta   71.55275320
_cell_angle_gamma   67.03208565
_symmetry_Int_Tables_number   1
_chemical_formula_structural   La3Ge5
_chemical_formula_sum   'La6 Ge10'
_cell_volume   402.61626504
_cell_formula_units_Z   2
loop_
 _symmetry_equiv_pos_site_id
 _symmetry_equiv_pos_as_xyz
  1  'x, y, z'
loop_
 _atom_site_type_symbol
 _atom_site_label
 _atom_site_symmetry_multiplicity
 _atom_site_fract_x
 _atom_site_fract_y
 _atom_site_fract_z
 _atom_site_occupancy
  La  La0  1  0.96628000  0.38313000  0.16457200  1.0
  La  La1  1  0.65059000  0.38313000  0.83542800  1.0
  La  La2  1  0.88085200  0.88313000  0.33542800  1.0
  La  La3  1  0.23601800  0.88313000  0.66457200  1.0
  La  La4  1  0.55246600  0.89506800  0.00000000  1.0
  La  La5  1  0.30246600  0.39506800  0.50000000  1.0
  Ge  Ge6  1  0.47942100  0.72381100  0.32495800  1.0
  Ge  Ge7  1  0.79676800  0.72381100  0.67504200  1.0
  Ge  Ge8  1  0.55437900  0.22381100  0.17504200  1.0
  Ge  Ge9  1  0.22181000  0.22381100  0.82495800  1.0
  Ge  Ge10  1  0.68474100  0.07515200  0.64146400  1.0
  Ge  Ge11  1  0.24010700  0.07515200  0.35853600  1.0
  Ge  Ge12  1  0.07620500  0.57515200  0.85853600  1.0
  Ge  Ge13  1  0.34864300  0.57515200  0.14146400  1.0
  Ge  Ge14  1  0.98812700  0.02374600  0.00000000  1.0
  Ge  Ge15  1  0.73812700  0.52374600  0.50000000  1.0
