# generated using pymatgen
data_La4CuO8
_symmetry_space_group_name_H-M   'P 1'
_cell_length_a   5.27671700
_cell_length_b   5.28760600
_cell_length_c   7.04572620
_cell_angle_alpha   67.96116260
_cell_angle_beta   90.00000000
_cell_angle_gamma   90.00000000
_symmetry_Int_Tables_number   1
_chemical_formula_structural   La4CuO8
_chemical_formula_sum   'La4 Cu1 O8'
_cell_volume   182.21975486
_cell_formula_units_Z   1
loop_
 _symmetry_equiv_pos_site_id
 _symmetry_equiv_pos_as_xyz
  1  'x, y, z'
loop_
 _atom_site_type_symbol
 _atom_site_label
 _atom_site_symmetry_multiplicity
 _atom_site_fract_x
 _atom_site_fract_y
 _atom_site_fract_z
 _atom_site_occupancy
  La  La0  1  1.00000000  0.86560300  0.26879400  1.0
  La  La1  1  1.00000000  0.13439700  0.73120600  1.0
  La  La2  1  0.50000000  0.36356100  0.27287800  1.0
  La  La3  1  0.50000000  0.63643900  0.72712200  1.0
  Cu  Cu4  1  1.00000000  0.50000000  1.00000000  1.0
  O  O5  1  1.00000000  0.31852700  0.36294600  1.0
  O  O6  1  1.00000000  0.68147300  0.63705400  1.0
  O  O7  1  0.24381700  0.74569200  1.00000000  1.0
  O  O8  1  0.24381700  0.25430800  1.00000000  1.0
  O  O9  1  0.50000000  0.81405500  0.37189000  1.0
  O  O10  1  0.50000000  0.18594500  0.62811000  1.0
  O  O11  1  0.75618300  0.74569200  1.00000000  1.0
  O  O12  1  0.75618300  0.25430800  1.00000000  1.0
