# generated using pymatgen
data_La7Ni3
_symmetry_space_group_name_H-M   'P 1'
_cell_length_a   6.46825100
_cell_length_b   10.10940400
_cell_length_c   10.10940428
_cell_angle_alpha   119.99999910
_cell_angle_beta   90.00000000
_cell_angle_gamma   90.00000000
_symmetry_Int_Tables_number   1
_chemical_formula_structural   La7Ni3
_chemical_formula_sum   'La14 Ni6'
_cell_volume   572.49093878
_cell_formula_units_Z   2
loop_
 _symmetry_equiv_pos_site_id
 _symmetry_equiv_pos_as_xyz
  1  'x, y, z'
loop_
 _atom_site_type_symbol
 _atom_site_label
 _atom_site_symmetry_multiplicity
 _atom_site_fract_x
 _atom_site_fract_y
 _atom_site_fract_z
 _atom_site_occupancy
  La  La0  1  0.68000400  0.53820000  0.07640000  1.0
  La  La1  1  0.21941500  0.66666667  0.33333333  1.0
  La  La2  1  0.50788100  0.12649600  0.25299200  1.0
  La  La3  1  0.00788100  0.25299200  0.12649600  1.0
  La  La4  1  0.50788100  0.12649600  0.87350400  1.0
  La  La5  1  0.68000400  0.92360100  0.46180100  1.0
  La  La6  1  0.00788100  0.87350400  0.74700800  1.0
  La  La7  1  0.18000400  0.46180000  0.53819900  1.0
  La  La8  1  0.18000400  0.07639900  0.53819900  1.0
  La  La9  1  0.71941500  0.33333333  0.66666667  1.0
  La  La10  1  0.68000400  0.53820000  0.46180100  1.0
  La  La11  1  0.50788100  0.74700800  0.87350400  1.0
  La  La12  1  0.18000400  0.46180000  0.92360000  1.0
  La  La13  1  0.00788100  0.87350400  0.12649600  1.0
  Ni  Ni14  1  0.94864300  0.62557000  0.81278500  1.0
  Ni  Ni15  1  0.44864300  0.81278500  0.62557000  1.0
  Ni  Ni16  1  0.94864300  0.18721500  0.81278500  1.0
  Ni  Ni17  1  0.44864300  0.81278500  0.18721500  1.0
  Ni  Ni18  1  0.94864300  0.18721500  0.37443000  1.0
  Ni  Ni19  1  0.44864300  0.37443000  0.18721500  1.0
