# generated using pymatgen
data_LaAg2
_symmetry_space_group_name_H-M   'P 1'
_cell_length_a   4.89832800
_cell_length_b   6.06694149
_cell_length_c   6.06694149
_cell_angle_alpha   75.80109223
_cell_angle_beta   66.19093417
_cell_angle_gamma   66.19093417
_symmetry_Int_Tables_number   1
_chemical_formula_structural   LaAg2
_chemical_formula_sum   'La2 Ag4'
_cell_volume   150.18275645
_cell_formula_units_Z   2
loop_
 _symmetry_equiv_pos_site_id
 _symmetry_equiv_pos_as_xyz
  1  'x, y, z'
loop_
 _atom_site_type_symbol
 _atom_site_label
 _atom_site_symmetry_multiplicity
 _atom_site_fract_x
 _atom_site_fract_y
 _atom_site_fract_z
 _atom_site_occupancy
  La  La0  1  0.46198800  0.28801200  0.78801200  1.0
  La  La1  1  0.53801200  0.71198800  0.21198800  1.0
  Ag  Ag2  1  0.83480000  0.71242500  0.61797400  1.0
  Ag  Ag3  1  0.16520000  0.28757500  0.38202600  1.0
  Ag  Ag4  1  0.16519900  0.88202700  0.78757500  1.0
  Ag  Ag5  1  0.83480100  0.11797300  0.21242500  1.0
