# generated using pymatgen
data_LaCO
_symmetry_space_group_name_H-M   'P 1'
_cell_length_a   4.01114800
_cell_length_b   4.07349982
_cell_length_c   7.36727298
_cell_angle_alpha   94.60973551
_cell_angle_beta   90.00000000
_cell_angle_gamma   119.49493727
_symmetry_Int_Tables_number   1
_chemical_formula_structural   LaCO
_chemical_formula_sum   'La2 C2 O2'
_cell_volume   104.32835392
_cell_formula_units_Z   2
loop_
 _symmetry_equiv_pos_site_id
 _symmetry_equiv_pos_as_xyz
  1  'x, y, z'
loop_
 _atom_site_type_symbol
 _atom_site_label
 _atom_site_symmetry_multiplicity
 _atom_site_fract_x
 _atom_site_fract_y
 _atom_site_fract_z
 _atom_site_occupancy
  La  La0  1  0.31643300  0.63286600  0.29245500  1.0
  La  La1  1  0.68356700  0.36713400  0.70754500  1.0
  C  C2  1  0.03924800  0.07849600  0.92668300  1.0
  C  C3  1  0.96075200  0.92150400  0.07331700  1.0
  O  O4  1  0.65264800  0.30529600  0.37930200  1.0
  O  O5  1  0.34735200  0.69470400  0.62069800  1.0
