# generated using pymatgen
data_LaFe4(CuO4)3
_symmetry_space_group_name_H-M   'P 1'
_cell_length_a   6.50279249
_cell_length_b   6.50283061
_cell_length_c   6.50282366
_cell_angle_alpha   109.47976687
_cell_angle_beta   109.56898029
_cell_angle_gamma   109.36490384
_symmetry_Int_Tables_number   1
_chemical_formula_structural   LaFe4(CuO4)3
_chemical_formula_sum   'La1 Fe4 Cu3 O12'
_cell_volume   211.68078793
_cell_formula_units_Z   1
loop_
 _symmetry_equiv_pos_site_id
 _symmetry_equiv_pos_as_xyz
  1  'x, y, z'
loop_
 _atom_site_type_symbol
 _atom_site_label
 _atom_site_symmetry_multiplicity
 _atom_site_fract_x
 _atom_site_fract_y
 _atom_site_fract_z
 _atom_site_occupancy
  La  La0  1  0.00000000  0.00000000  0.00000000  1.0
  Fe  Fe1  1  1.00000000  0.50000000  1.00000000  1.0
  Fe  Fe2  1  0.50000000  0.00000000  0.00000000  1.0
  Fe  Fe3  1  0.50000000  0.50000000  0.50000000  1.0
  Fe  Fe4  1  0.00000000  0.00000000  0.50000000  1.0
  Cu  Cu5  1  0.50000000  0.00000000  0.50000000  1.0
  Cu  Cu6  1  0.50000000  0.50000000  0.00000000  1.0
  Cu  Cu7  1  1.00000000  0.50000000  0.50000000  1.0
  O  O8  1  0.85568700  0.68851500  0.16717100  1.0
  O  O9  1  0.52134300  0.68851600  0.83282800  1.0
  O  O10  1  0.47865700  0.31148400  0.16717200  1.0
  O  O11  1  0.14431300  0.31148500  0.83282900  1.0
  O  O12  1  0.31209400  0.16652100  0.47861600  1.0
  O  O13  1  0.31209400  0.83347700  0.14557100  1.0
  O  O14  1  0.68790600  0.16652300  0.85442900  1.0
  O  O15  1  0.68790600  0.83347900  0.52138400  1.0
  O  O16  1  0.83275300  0.14426100  0.31150700  1.0
  O  O17  1  0.16724500  0.47875300  0.31150800  1.0
  O  O18  1  0.83275500  0.52124700  0.68849200  1.0
  O  O19  1  0.16724700  0.85573900  0.68849300  1.0
