# generated using pymatgen
data_LaGaO3
_symmetry_space_group_name_H-M   'P 1'
_cell_length_a   5.53979200
_cell_length_b   5.56003903
_cell_length_c   5.56003903
_cell_angle_alpha   60.40361191
_cell_angle_beta   60.12038780
_cell_angle_gamma   60.12038779
_symmetry_Int_Tables_number   1
_chemical_formula_structural   LaGaO3
_chemical_formula_sum   'La2 Ga2 O6'
_cell_volume   121.68417252
_cell_formula_units_Z   2
loop_
 _symmetry_equiv_pos_site_id
 _symmetry_equiv_pos_as_xyz
  1  'x, y, z'
loop_
 _atom_site_type_symbol
 _atom_site_label
 _atom_site_symmetry_multiplicity
 _atom_site_fract_x
 _atom_site_fract_y
 _atom_site_fract_z
 _atom_site_occupancy
  La  La0  1  0.75000000  0.24128800  0.25871200  1.0
  La  La1  1  0.25000000  0.75871200  0.74128800  1.0
  Ga  Ga2  1  0.50000000  0.00000000  1.00000000  1.0
  Ga  Ga3  1  0.00000000  0.50000000  0.50000000  1.0
  O  O4  1  0.20473800  0.79526200  0.29526200  1.0
  O  O5  1  0.79526200  0.20473800  0.70473800  1.0
  O  O6  1  0.70473800  0.79526200  0.29526200  1.0
  O  O7  1  0.29526200  0.20473800  0.70473800  1.0
  O  O8  1  0.25000000  0.33162800  0.16837200  1.0
  O  O9  1  0.75000000  0.66837200  0.83162800  1.0
