# generated using pymatgen
data_LaGaO3
_symmetry_space_group_name_H-M   'P 1'
_cell_length_a   5.52989012
_cell_length_b   5.52989012
_cell_length_c   5.52989052
_cell_angle_alpha   60.78512786
_cell_angle_beta   60.78512786
_cell_angle_gamma   60.78512610
_symmetry_Int_Tables_number   1
_chemical_formula_structural   LaGaO3
_chemical_formula_sum   'La2 Ga2 O6'
_cell_volume   121.69108621
_cell_formula_units_Z   2
loop_
 _symmetry_equiv_pos_site_id
 _symmetry_equiv_pos_as_xyz
  1  'x, y, z'
loop_
 _atom_site_type_symbol
 _atom_site_label
 _atom_site_symmetry_multiplicity
 _atom_site_fract_x
 _atom_site_fract_y
 _atom_site_fract_z
 _atom_site_occupancy
  La  La0  1  0.25177600  0.25177600  0.25177600  1.0
  La  La1  1  0.75177600  0.75177600  0.75177600  1.0
  Ga  Ga2  1  0.50360500  0.50360500  0.50360500  1.0
  Ga  Ga3  1  0.00360500  0.00360500  0.00360500  1.0
  O  O4  1  0.18482000  0.32430400  0.75739600  1.0
  O  O5  1  0.32430400  0.75739600  0.18482000  1.0
  O  O6  1  0.75739600  0.18482000  0.32430400  1.0
  O  O7  1  0.68482000  0.25739600  0.82430400  1.0
  O  O8  1  0.25739600  0.82430400  0.68482000  1.0
  O  O9  1  0.82430400  0.68482000  0.25739600  1.0
