# generated using pymatgen
data_LaMgSi2
_symmetry_space_group_name_H-M   'P 1'
_cell_length_a   4.32113800
_cell_length_b   4.32113800
_cell_length_c   18.76802533
_cell_angle_alpha   96.61052784
_cell_angle_beta   96.61052783
_cell_angle_gamma   90.00000004
_symmetry_Int_Tables_number   1
_chemical_formula_structural   LaMgSi2
_chemical_formula_sum   'La4 Mg4 Si8'
_cell_volume   345.76553233
_cell_formula_units_Z   4
loop_
 _symmetry_equiv_pos_site_id
 _symmetry_equiv_pos_as_xyz
  1  'x, y, z'
loop_
 _atom_site_type_symbol
 _atom_site_label
 _atom_site_symmetry_multiplicity
 _atom_site_fract_x
 _atom_site_fract_y
 _atom_site_fract_z
 _atom_site_occupancy
  La  La0  1  0.17303400  0.67303400  0.34606800  1.0
  La  La1  1  0.42303400  0.42303400  0.84606800  1.0
  La  La2  1  0.32696600  0.82696600  0.65393200  1.0
  La  La3  1  0.57696600  0.57696600  0.15393200  1.0
  Mg  Mg4  1  0.99992700  0.49992700  0.99985400  1.0
  Mg  Mg5  1  0.50007300  0.00007300  0.00014600  1.0
  Mg  Mg6  1  0.24992700  0.24992700  0.49985400  1.0
  Mg  Mg7  1  0.75007300  0.75007300  0.50014600  1.0
  Si  Si8  1  0.63919800  0.13919800  0.27839600  1.0
  Si  Si9  1  0.86080200  0.36080200  0.72160400  1.0
  Si  Si10  1  0.79773800  0.29773800  0.59547600  1.0
  Si  Si11  1  0.70226200  0.20226200  0.40452400  1.0
  Si  Si12  1  0.11080200  0.11080200  0.22160400  1.0
  Si  Si13  1  0.88919800  0.88919800  0.77839600  1.0
  Si  Si14  1  0.95226200  0.95226200  0.90452400  1.0
  Si  Si15  1  0.04773800  0.04773800  0.09547600  1.0
