# generated using pymatgen
data_LaNd3
_symmetry_space_group_name_H-M   'P 1'
_cell_length_a   6.01831000
_cell_length_b   7.44377200
_cell_length_c   7.44377230
_cell_angle_alpha   60.00000134
_cell_angle_beta   90.00000000
_cell_angle_gamma   90.00000000
_symmetry_Int_Tables_number   1
_chemical_formula_structural   LaNd3
_chemical_formula_sum   'La2 Nd6'
_cell_volume   288.79610660
_cell_formula_units_Z   2
loop_
 _symmetry_equiv_pos_site_id
 _symmetry_equiv_pos_as_xyz
  1  'x, y, z'
loop_
 _atom_site_type_symbol
 _atom_site_label
 _atom_site_symmetry_multiplicity
 _atom_site_fract_x
 _atom_site_fract_y
 _atom_site_fract_z
 _atom_site_occupancy
  La  La0  1  0.75000000  0.66666667  0.66666667  1.0
  La  La1  1  0.25000000  0.33333333  0.33333333  1.0
  Nd  Nd2  1  0.25000000  0.83401900  0.33196200  1.0
  Nd  Nd3  1  0.25000000  0.83401900  0.83402000  1.0
  Nd  Nd4  1  0.25000000  0.33196100  0.83402000  1.0
  Nd  Nd5  1  0.75000000  0.16598100  0.66803800  1.0
  Nd  Nd6  1  0.75000000  0.16598100  0.16598000  1.0
  Nd  Nd7  1  0.75000000  0.66803900  0.16598000  1.0
