# generated using pymatgen
data_LaSi
_symmetry_space_group_name_H-M   'P 1'
_cell_length_a   4.56830800
_cell_length_b   6.66699800
_cell_length_c   7.08025672
_cell_angle_alpha   90.00000000
_cell_angle_beta   108.82077514
_cell_angle_gamma   90.00000000
_symmetry_Int_Tables_number   1
_chemical_formula_structural   LaSi
_chemical_formula_sum   'La4 Si4'
_cell_volume   204.11276536
_cell_formula_units_Z   4
loop_
 _symmetry_equiv_pos_site_id
 _symmetry_equiv_pos_as_xyz
  1  'x, y, z'
loop_
 _atom_site_type_symbol
 _atom_site_label
 _atom_site_symmetry_multiplicity
 _atom_site_fract_x
 _atom_site_fract_y
 _atom_site_fract_z
 _atom_site_occupancy
  La  La0  1  0.27412200  0.25000000  0.54824400  1.0
  La  La1  1  0.72587800  0.75000000  0.45175600  1.0
  La  La2  1  0.55176300  0.25000000  0.10352600  1.0
  La  La3  1  0.44823700  0.75000000  0.89647400  1.0
  Si  Si4  1  0.09136300  0.93702500  0.18272600  1.0
  Si  Si5  1  0.90863700  0.06297500  0.81727400  1.0
  Si  Si6  1  0.90863700  0.43702500  0.81727400  1.0
  Si  Si7  1  0.09136300  0.56297500  0.18272600  1.0
