# generated using pymatgen
data_LaY3Sc4O12
_symmetry_space_group_name_H-M   'P 1'
_cell_length_a   5.52989600
_cell_length_b   5.79023427
_cell_length_c   8.02972100
_cell_angle_alpha   90.00000000
_cell_angle_beta   90.00000000
_cell_angle_gamma   89.98259427
_symmetry_Int_Tables_number   1
_chemical_formula_structural   LaY3Sc4O12
_chemical_formula_sum   'La1 Y3 Sc4 O12'
_cell_volume   257.10678316
_cell_formula_units_Z   1
loop_
 _symmetry_equiv_pos_site_id
 _symmetry_equiv_pos_as_xyz
  1  'x, y, z'
loop_
 _atom_site_type_symbol
 _atom_site_label
 _atom_site_symmetry_multiplicity
 _atom_site_fract_x
 _atom_site_fract_y
 _atom_site_fract_z
 _atom_site_occupancy
  La  La0  1  0.51448700  0.44687400  0.50000000  1.0
  Y  Y1  1  0.97895400  0.94013400  0.50000000  1.0
  Y  Y2  1  0.48137000  0.56294900  0.00000000  1.0
  Y  Y3  1  0.01554300  0.05928200  0.00000000  1.0
  Sc  Sc4  1  0.50077900  0.00111300  0.24656800  1.0
  Sc  Sc5  1  0.99935100  0.50090700  0.75422700  1.0
  Sc  Sc6  1  0.50077900  0.00111300  0.75343200  1.0
  Sc  Sc7  1  0.99935100  0.50090700  0.24577300  1.0
  O  O8  1  0.37254700  0.03876400  0.50000000  1.0
  O  O9  1  0.10305600  0.55415200  0.50000000  1.0
  O  O10  1  0.62851300  0.94425700  0.00000000  1.0
  O  O11  1  0.86882200  0.44100200  0.00000000  1.0
  O  O12  1  0.19678600  0.80337800  0.18002800  1.0
  O  O13  1  0.30898300  0.30769200  0.81809200  1.0
  O  O14  1  0.81319500  0.19055100  0.68831900  1.0
  O  O15  1  0.69926200  0.70265200  0.30770200  1.0
  O  O16  1  0.81319500  0.19055100  0.31168100  1.0
  O  O17  1  0.69926200  0.70265200  0.69229800  1.0
  O  O18  1  0.19678600  0.80337800  0.81997200  1.0
  O  O19  1  0.30898300  0.30769200  0.18190800  1.0
