# generated using pymatgen
data_Li(Fe3Ge2)2
_symmetry_space_group_name_H-M   'P 1'
_cell_length_a   5.04738583
_cell_length_b   5.04738583
_cell_length_c   7.12417099
_cell_angle_alpha   69.25288960
_cell_angle_beta   69.25288960
_cell_angle_gamma   60.00000222
_symmetry_Int_Tables_number   1
_chemical_formula_structural   Li(Fe3Ge2)2
_chemical_formula_sum   'Li1 Fe6 Ge4'
_cell_volume   143.42917272
_cell_formula_units_Z   1
loop_
 _symmetry_equiv_pos_site_id
 _symmetry_equiv_pos_as_xyz
  1  'x, y, z'
loop_
 _atom_site_type_symbol
 _atom_site_label
 _atom_site_symmetry_multiplicity
 _atom_site_fract_x
 _atom_site_fract_y
 _atom_site_fract_z
 _atom_site_occupancy
  Li  Li0  1  0.00000000  0.00000000  0.00000000  1.0
  Fe  Fe1  1  0.88640800  0.39978500  0.31402200  1.0
  Fe  Fe2  1  0.60021500  0.11359200  0.68597800  1.0
  Fe  Fe3  1  0.60021500  0.60021500  0.68597800  1.0
  Fe  Fe4  1  0.11359200  0.60021500  0.68597800  1.0
  Fe  Fe5  1  0.39978500  0.39978500  0.31402200  1.0
  Fe  Fe6  1  0.39978500  0.88640800  0.31402200  1.0
  Ge  Ge7  1  0.12726000  0.12726000  0.61822000  1.0
  Ge  Ge8  1  0.33159300  0.33159300  0.00522100  1.0
  Ge  Ge9  1  0.66840700  0.66840700  0.99477900  1.0
  Ge  Ge10  1  0.87274000  0.87274000  0.38178000  1.0
