# generated using pymatgen
data_Li(TiS2)3
_symmetry_space_group_name_H-M   'P 1'
_cell_length_a   3.42112800
_cell_length_b   3.42112821
_cell_length_c   21.58186900
_cell_angle_alpha   90.00000000
_cell_angle_beta   90.00000000
_cell_angle_gamma   119.99999797
_symmetry_Int_Tables_number   1
_chemical_formula_structural   Li(TiS2)3
_chemical_formula_sum   'Li1 Ti3 S6'
_cell_volume   218.75519033
_cell_formula_units_Z   1
loop_
 _symmetry_equiv_pos_site_id
 _symmetry_equiv_pos_as_xyz
  1  'x, y, z'
loop_
 _atom_site_type_symbol
 _atom_site_label
 _atom_site_symmetry_multiplicity
 _atom_site_fract_x
 _atom_site_fract_y
 _atom_site_fract_z
 _atom_site_occupancy
  Li  Li0  1  0.00000000  0.00000000  0.50000000  1.0
  Ti  Ti1  1  0.00000000  0.00000000  0.35407800  1.0
  Ti  Ti2  1  0.00000000  0.00000000  0.64592200  1.0
  Ti  Ti3  1  0.00000000  0.00000000  0.00000000  1.0
  S  S4  1  0.33333333  0.66666667  0.71022200  1.0
  S  S5  1  0.66666667  0.33333333  0.28977800  1.0
  S  S6  1  0.66666667  0.33333333  0.93423600  1.0
  S  S7  1  0.33333333  0.66666667  0.06576400  1.0
  S  S8  1  0.66666667  0.33333333  0.57581600  1.0
  S  S9  1  0.33333333  0.66666667  0.42418400  1.0
