# generated using pymatgen
data_Li2AlNiO4
_symmetry_space_group_name_H-M   'P 1'
_cell_length_a   4.98207500
_cell_length_b   5.36602600
_cell_length_c   6.40351886
_cell_angle_alpha   90.00000000
_cell_angle_beta   90.02963429
_cell_angle_gamma   90.00000000
_symmetry_Int_Tables_number   1
_chemical_formula_structural   Li2AlNiO4
_chemical_formula_sum   'Li4 Al2 Ni2 O8'
_cell_volume   171.19129157
_cell_formula_units_Z   2
loop_
 _symmetry_equiv_pos_site_id
 _symmetry_equiv_pos_as_xyz
  1  'x, y, z'
loop_
 _atom_site_type_symbol
 _atom_site_label
 _atom_site_symmetry_multiplicity
 _atom_site_fract_x
 _atom_site_fract_y
 _atom_site_fract_z
 _atom_site_occupancy
  Li  Li0  1  0.49432800  0.67099500  0.75173000  1.0
  Li  Li1  1  0.49718700  0.16852800  0.00478800  1.0
  Li  Li2  1  0.99432800  0.32900500  0.25173000  1.0
  Li  Li3  1  0.99718700  0.83147200  0.50478800  1.0
  Al  Al4  1  0.00375300  0.32678400  0.75408000  1.0
  Al  Al5  1  0.50375300  0.67321600  0.25408000  1.0
  Ni  Ni6  1  0.00169800  0.82792400  0.99990900  1.0
  Ni  Ni7  1  0.50169800  0.17207600  0.49990900  1.0
  O  O8  1  0.36156100  0.31512600  0.74058300  1.0
  O  O9  1  0.37597500  0.81369700  0.02313400  1.0
  O  O10  1  0.39979400  0.83900800  0.48166100  1.0
  O  O11  1  0.40000500  0.35581400  0.26701500  1.0
  O  O12  1  0.86156100  0.68487400  0.24058300  1.0
  O  O13  1  0.87597500  0.18630300  0.52313400  1.0
  O  O14  1  0.89979400  0.16099200  0.98166100  1.0
  O  O15  1  0.90000500  0.64418600  0.76701500  1.0
