# generated using pymatgen
data_Li2Cu4S3
_symmetry_space_group_name_H-M   'P 1'
_cell_length_a   3.79772600
_cell_length_b   7.63374403
_cell_length_c   10.00827892
_cell_angle_alpha   107.68996705
_cell_angle_beta   90.00000000
_cell_angle_gamma   104.40331708
_symmetry_Int_Tables_number   1
_chemical_formula_structural   Li2Cu4S3
_chemical_formula_sum   'Li4 Cu8 S6'
_cell_volume   266.84071074
_cell_formula_units_Z   2
loop_
 _symmetry_equiv_pos_site_id
 _symmetry_equiv_pos_as_xyz
  1  'x, y, z'
loop_
 _atom_site_type_symbol
 _atom_site_label
 _atom_site_symmetry_multiplicity
 _atom_site_fract_x
 _atom_site_fract_y
 _atom_site_fract_z
 _atom_site_occupancy
  Li  Li0  1  0.17073400  0.32669900  0.34690800  1.0
  Li  Li1  1  0.68668800  0.38665500  0.85432800  1.0
  Li  Li2  1  0.30003300  0.61334500  0.14567200  1.0
  Li  Li3  1  0.84403500  0.67330100  0.65309200  1.0
  Cu  Cu4  1  0.50952300  0.03385700  0.38204900  1.0
  Cu  Cu5  1  0.53023800  0.06067800  0.13331800  1.0
  Cu  Cu6  1  0.10026700  0.20163700  0.01156200  1.0
  Cu  Cu7  1  0.09916000  0.20749000  0.60106200  1.0
  Cu  Cu8  1  0.89167000  0.79251000  0.39893800  1.0
  Cu  Cu9  1  0.89863000  0.79836300  0.98843800  1.0
  Cu  Cu10  1  0.46956000  0.93932200  0.86668200  1.0
  Cu  Cu11  1  0.47566600  0.96614300  0.61795100  1.0
  S  S12  1  0.02204700  0.05852200  0.77315700  1.0
  S  S13  1  0.68209400  0.36524800  0.11924600  1.0
  S  S14  1  0.65888800  0.32626800  0.54187000  1.0
  S  S15  1  0.33262000  0.67373200  0.45813000  1.0
  S  S16  1  0.31684600  0.63475200  0.88075400  1.0
  S  S17  1  0.96352500  0.94147800  0.22684300  1.0
