# generated using pymatgen
data_Li2CoSnO4
_symmetry_space_group_name_H-M   'P 1'
_cell_length_a   6.10237893
_cell_length_b   6.15542873
_cell_length_c   6.15629804
_cell_angle_alpha   90.27601796
_cell_angle_beta   119.57481430
_cell_angle_gamma   119.57753660
_symmetry_Int_Tables_number   1
_chemical_formula_structural   Li2CoSnO4
_chemical_formula_sum   'Li4 Co2 Sn2 O8'
_cell_volume   165.20635000
_cell_formula_units_Z   2
loop_
 _symmetry_equiv_pos_site_id
 _symmetry_equiv_pos_as_xyz
  1  'x, y, z'
loop_
 _atom_site_type_symbol
 _atom_site_label
 _atom_site_symmetry_multiplicity
 _atom_site_fract_x
 _atom_site_fract_y
 _atom_site_fract_z
 _atom_site_occupancy
  Li  Li0  1  0.99995900  0.49997000  0.99996100  1.0
  Li  Li1  1  0.50000600  0.49997900  0.50003600  1.0
  Li  Li2  1  0.50004300  0.00004100  0.50003500  1.0
  Li  Li3  1  0.00000000  0.49996900  0.50002400  1.0
  Co  Co4  1  0.49997100  0.00006600  0.99991900  1.0
  Co  Co5  1  0.00000900  0.00005900  0.99991800  1.0
  Sn  Sn6  1  0.49977900  0.49982300  0.99984000  1.0
  Sn  Sn7  1  0.00022400  0.00015300  0.50017700  1.0
  O  O8  1  0.98886200  0.74747100  0.25067000  1.0
  O  O9  1  0.98798600  0.22549900  0.25192100  1.0
  O  O10  1  0.51108200  0.74936200  0.25240900  1.0
  O  O11  1  0.51211300  0.74812400  0.77449200  1.0
  O  O12  1  0.48793900  0.25190200  0.22558200  1.0
  O  O13  1  0.48879300  0.25061700  0.74762900  1.0
  O  O14  1  0.01198000  0.77447800  0.74804100  1.0
  O  O15  1  0.01125300  0.25248700  0.74934600  1.0
