# generated using pymatgen
data_Li2Cu2F7
_symmetry_space_group_name_H-M   'P 1'
_cell_length_a   3.12416600
_cell_length_b   6.84808243
_cell_length_c   7.22416784
_cell_angle_alpha   72.97201124
_cell_angle_beta   77.51229165
_cell_angle_gamma   76.81445925
_symmetry_Int_Tables_number   1
_chemical_formula_structural   Li2Cu2F7
_chemical_formula_sum   'Li2 Cu2 F7'
_cell_volume   142.02048768
_cell_formula_units_Z   1
loop_
 _symmetry_equiv_pos_site_id
 _symmetry_equiv_pos_as_xyz
  1  'x, y, z'
loop_
 _atom_site_type_symbol
 _atom_site_label
 _atom_site_symmetry_multiplicity
 _atom_site_fract_x
 _atom_site_fract_y
 _atom_site_fract_z
 _atom_site_occupancy
  Li  Li0  1  0.29751100  0.74342600  0.66155200  1.0
  Li  Li1  1  0.75987400  0.37415500  0.10609700  1.0
  Cu  Cu2  1  0.97065600  0.75740800  0.30128000  1.0
  Cu  Cu3  1  0.52283600  0.09598000  0.85834800  1.0
  F  F4  1  0.68794700  0.85470000  0.76940600  1.0
  F  F5  1  0.35795900  0.91045900  0.37362300  1.0
  F  F6  1  0.99328400  0.96472000  0.04871200  1.0
  F  F7  1  0.91808100  0.60108000  0.56275800  1.0
  F  F8  1  0.34491800  0.32547000  0.98469400  1.0
  F  F9  1  0.59125200  0.59548500  0.22201100  1.0
  F  F10  1  0.05168700  0.19675800  0.69986800  1.0
