# generated using pymatgen
data_Li2CuNiO4
_symmetry_space_group_name_H-M   'P 1'
_cell_length_a   4.09330097
_cell_length_b   4.09341559
_cell_length_c   5.08441447
_cell_angle_alpha   113.70845589
_cell_angle_beta   113.70550642
_cell_angle_gamma   90.06858528
_symmetry_Int_Tables_number   1
_chemical_formula_structural   Li2CuNiO4
_chemical_formula_sum   'Li2 Cu1 Ni1 O4'
_cell_volume   70.06042505
_cell_formula_units_Z   1
loop_
 _symmetry_equiv_pos_site_id
 _symmetry_equiv_pos_as_xyz
  1  'x, y, z'
loop_
 _atom_site_type_symbol
 _atom_site_label
 _atom_site_symmetry_multiplicity
 _atom_site_fract_x
 _atom_site_fract_y
 _atom_site_fract_z
 _atom_site_occupancy
  Cu  Cu4  1  0.25000600  0.75000550  0.49999900  1.0
  Li  Li0  1  0.74999950  0.24999950  0.50000000  1.0
  Li  Li2  1  0.50000200  0.50000100  0.99999900  1.0
  Ni  Ni6  1  0.00000100  0.00000400  1.00000000  1.0
  O  O8  1  0.02376550  0.52377900  0.04756200  1.0
  O  O10  1  0.47621850  0.97620200  0.95243600  1.0
  O  O12  1  0.23517050  0.23516950  0.47033300  1.0
  O  O14  1  0.76483800  0.76483850  0.52967100  1.0
