# generated using pymatgen
data_Li2FeCl4
_symmetry_space_group_name_H-M   'P 1'
_cell_length_a   7.35135612
_cell_length_b   7.35135612
_cell_length_c   7.35135612
_cell_angle_alpha   89.12558717
_cell_angle_beta   60.29647038
_cell_angle_gamma   119.28978924
_symmetry_Int_Tables_number   1
_chemical_formula_structural   Li2FeCl4
_chemical_formula_sum   'Li4 Fe2 Cl8'
_cell_volume   283.02010928
_cell_formula_units_Z   2
loop_
 _symmetry_equiv_pos_site_id
 _symmetry_equiv_pos_as_xyz
  1  'x, y, z'
loop_
 _atom_site_type_symbol
 _atom_site_label
 _atom_site_symmetry_multiplicity
 _atom_site_fract_x
 _atom_site_fract_y
 _atom_site_fract_z
 _atom_site_occupancy
  Li  Li0  1  0.50000000  1.00000000  0.00000000  1.0
  Li  Li1  1  1.00000000  1.00000000  0.50000000  1.0
  Li  Li2  1  0.25000000  0.38042800  0.86957200  1.0
  Li  Li3  1  0.75000000  0.61957200  0.13042800  1.0
  Fe  Fe4  1  1.00000000  0.50000000  0.50000000  1.0
  Fe  Fe5  1  0.50000000  1.00000000  0.50000000  1.0
  Cl  Cl6  1  0.98032800  0.24716500  0.27250700  1.0
  Cl  Cl7  1  0.51967200  0.24716500  0.73316300  1.0
  Cl  Cl8  1  0.51137900  0.77604100  0.73533800  1.0
  Cl  Cl9  1  0.98862100  0.25328300  0.73533800  1.0
  Cl  Cl10  1  0.01967200  0.75283500  0.72749300  1.0
  Cl  Cl11  1  0.48032800  0.75283500  0.26683700  1.0
  Cl  Cl12  1  0.48862100  0.22395900  0.26466200  1.0
  Cl  Cl13  1  0.01137900  0.74671700  0.26466200  1.0
