# generated using pymatgen
data_Li2GeTeO6
_symmetry_space_group_name_H-M   'P 1'
_cell_length_a   5.08042263
_cell_length_b   5.08042263
_cell_length_c   5.69151109
_cell_angle_alpha   63.49244442
_cell_angle_beta   63.49244442
_cell_angle_gamma   59.99999173
_symmetry_Int_Tables_number   1
_chemical_formula_structural   Li2GeTeO6
_chemical_formula_sum   'Li2 Ge1 Te1 O6'
_cell_volume   109.02474214
_cell_formula_units_Z   1
loop_
 _symmetry_equiv_pos_site_id
 _symmetry_equiv_pos_as_xyz
  1  'x, y, z'
loop_
 _atom_site_type_symbol
 _atom_site_label
 _atom_site_symmetry_multiplicity
 _atom_site_fract_x
 _atom_site_fract_y
 _atom_site_fract_z
 _atom_site_occupancy
  Li  Li0  1  0.86678700  0.86678700  0.39963900  1.0
  Li  Li1  1  0.13154100  0.13154100  0.60537700  1.0
  Ge  Ge2  1  0.33991500  0.33991500  0.98025500  1.0
  Te  Te3  1  0.65983900  0.65983900  0.02048300  1.0
  O  O4  1  0.94008000  0.28464600  0.22437300  1.0
  O  O5  1  0.28464600  0.55090100  0.22437300  1.0
  O  O6  1  0.55090100  0.94008000  0.22437300  1.0
  O  O7  1  0.06687100  0.70501700  0.77781000  1.0
  O  O8  1  0.70501700  0.45030200  0.77781000  1.0
  O  O9  1  0.45030200  0.06687100  0.77781000  1.0
