# generated using pymatgen
data_Li2MnSiO4
_symmetry_space_group_name_H-M   'P 1'
_cell_length_a   4.51373200
_cell_length_b   4.51373200
_cell_length_c   5.33925287
_cell_angle_alpha   115.00409372
_cell_angle_beta   115.00409372
_cell_angle_gamma   90.00139629
_symmetry_Int_Tables_number   1
_chemical_formula_structural   Li2MnSiO4
_chemical_formula_sum   'Li2 Mn1 Si1 O4'
_cell_volume   87.20589613
_cell_formula_units_Z   1
loop_
 _symmetry_equiv_pos_site_id
 _symmetry_equiv_pos_as_xyz
  1  'x, y, z'
loop_
 _atom_site_type_symbol
 _atom_site_label
 _atom_site_symmetry_multiplicity
 _atom_site_fract_x
 _atom_site_fract_y
 _atom_site_fract_z
 _atom_site_occupancy
  Li  Li0  1  0.24999100  0.74999100  0.49998200  1.0
  Li  Li2  1  0.74999100  0.24999100  0.49998200  1.0
  Mn  Mn4  1  0.00001500  0.00001500  0.00003000  1.0
  O  O8  1  0.59628750  0.17613050  0.77241800  1.0
  O  O10  1  0.17613100  0.59628800  0.77241850  1.0
  O  O12  1  0.82384400  0.82384400  0.22758600  1.0
  O  O14  1  0.40374250  0.40374250  0.22758650  1.0
  Si  Si6  1  0.49999800  0.49999800  0.99999600  1.0
