# generated using pymatgen
data_Li2MnO2
_symmetry_space_group_name_H-M   'P 1'
_cell_length_a   3.05908531
_cell_length_b   3.63763865
_cell_length_c   5.55277909
_cell_angle_alpha   109.11052884
_cell_angle_beta   105.98656644
_cell_angle_gamma   90.00020837
_symmetry_Int_Tables_number   1
_chemical_formula_structural   Li2MnO2
_chemical_formula_sum   'Li2 Mn1 O2'
_cell_volume   55.84992149
_cell_formula_units_Z   1
loop_
 _symmetry_equiv_pos_site_id
 _symmetry_equiv_pos_as_xyz
  1  'x, y, z'
loop_
 _atom_site_type_symbol
 _atom_site_label
 _atom_site_symmetry_multiplicity
 _atom_site_fract_x
 _atom_site_fract_y
 _atom_site_fract_z
 _atom_site_occupancy
  Li  Li0  1  0.27703200  0.77700325  0.55397025  1.0
  Li  Li4  1  0.72296850  0.22292875  0.44602875  1.0
  Mn  Mn8  1  0.99999950  0.50011800  0.00000100  1.0
  O  O12  1  0.35372900  0.35382100  0.70771400  1.0
  O  O16  1  0.64627050  0.64612950  0.29228550  1.0
