# generated using pymatgen
data_Li2Mg
_symmetry_space_group_name_H-M   'P 1'
_cell_length_a   3.18709600
_cell_length_b   5.94521165
_cell_length_c   7.01742481
_cell_angle_alpha   105.82035572
_cell_angle_beta   90.00000000
_cell_angle_gamma   105.54760333
_symmetry_Int_Tables_number   1
_chemical_formula_structural   Li2Mg
_chemical_formula_sum   'Li4 Mg2'
_cell_volume   122.86453332
_cell_formula_units_Z   2
loop_
 _symmetry_equiv_pos_site_id
 _symmetry_equiv_pos_as_xyz
  1  'x, y, z'
loop_
 _atom_site_type_symbol
 _atom_site_label
 _atom_site_symmetry_multiplicity
 _atom_site_fract_x
 _atom_site_fract_y
 _atom_site_fract_z
 _atom_site_occupancy
  Li  Li0  1  0.98299300  0.96598600  0.70671500  1.0
  Li  Li1  1  0.68340100  0.36680200  0.61595100  1.0
  Li  Li2  1  0.31659900  0.63319800  0.38404900  1.0
  Li  Li3  1  0.01700700  0.03401400  0.29328500  1.0
  Mg  Mg4  1  0.64576500  0.29153000  0.05197200  1.0
  Mg  Mg5  1  0.35423500  0.70847000  0.94802800  1.0
