# generated using pymatgen
data_Li2Mg3Si2
_symmetry_space_group_name_H-M   'P 1'
_cell_length_a   4.50247670
_cell_length_b   4.50247670
_cell_length_c   7.80440983
_cell_angle_alpha   73.23438287
_cell_angle_beta   73.23438287
_cell_angle_gamma   59.99998965
_symmetry_Int_Tables_number   1
_chemical_formula_structural   Li2Mg3Si2
_chemical_formula_sum   'Li2 Mg3 Si2'
_cell_volume   129.19279582
_cell_formula_units_Z   1
loop_
 _symmetry_equiv_pos_site_id
 _symmetry_equiv_pos_as_xyz
  1  'x, y, z'
loop_
 _atom_site_type_symbol
 _atom_site_label
 _atom_site_symmetry_multiplicity
 _atom_site_fract_x
 _atom_site_fract_y
 _atom_site_fract_z
 _atom_site_occupancy
  Li  Li0  1  0.74525100  0.74525100  0.76424700  1.0
  Li  Li1  1  0.36932800  0.36932800  0.89201600  1.0
  Mg  Mg2  1  0.12700100  0.12700100  0.61899700  1.0
  Mg  Mg3  1  0.62447500  0.62447500  0.12657500  1.0
  Mg  Mg4  1  0.88143900  0.88143900  0.35568300  1.0
  Si  Si5  1  0.00432800  0.00432800  0.98701600  1.0
  Si  Si6  1  0.49817900  0.49817900  0.50546300  1.0
