# generated using pymatgen
data_Li2MnCoO4
_symmetry_space_group_name_H-M   'P 1'
_cell_length_a   5.08215228
_cell_length_b   5.83335547
_cell_length_c   6.04308813
_cell_angle_alpha   61.24049136
_cell_angle_beta   85.83307130
_cell_angle_gamma   72.20202352
_symmetry_Int_Tables_number   1
_chemical_formula_structural   Li2MnCoO4
_chemical_formula_sum   'Li4 Mn2 Co2 O8'
_cell_volume   148.94243201
_cell_formula_units_Z   2
loop_
 _symmetry_equiv_pos_site_id
 _symmetry_equiv_pos_as_xyz
  1  'x, y, z'
loop_
 _atom_site_type_symbol
 _atom_site_label
 _atom_site_symmetry_multiplicity
 _atom_site_fract_x
 _atom_site_fract_y
 _atom_site_fract_z
 _atom_site_occupancy
  Li  Li0  1  0.49181400  0.50258200  0.24970400  1.0
  Li  Li1  1  0.00292300  0.49679500  0.50289300  1.0
  Li  Li2  1  0.99743000  0.50284200  0.99754200  1.0
  Li  Li3  1  0.50860700  0.49724600  0.74997700  1.0
  Mn  Mn4  1  0.50104200  0.00018200  0.24832100  1.0
  Mn  Mn5  1  0.00234500  0.00123600  0.50259200  1.0
  Co  Co6  1  0.99783800  0.00025900  0.99523000  1.0
  Co  Co7  1  0.49938700  0.99890300  0.75393000  1.0
  O  O8  1  0.24161600  0.76210400  0.88814500  1.0
  O  O9  1  0.24785600  0.22252500  0.87727000  1.0
  O  O10  1  0.74752900  0.77354700  0.62550800  1.0
  O  O11  1  0.74913900  0.22929000  0.11601900  1.0
  O  O12  1  0.74715900  0.77962200  0.11254700  1.0
  O  O13  1  0.75661400  0.23767500  0.62097800  1.0
  O  O14  1  0.25225600  0.77005000  0.37673500  1.0
  O  O15  1  0.25644600  0.22514000  0.38260900  1.0
