# generated using pymatgen
data_Li2MnNiO4
_symmetry_space_group_name_H-M   'P 1'
_cell_length_a   4.05658001
_cell_length_b   4.05658045
_cell_length_c   5.17530067
_cell_angle_alpha   113.06641240
_cell_angle_beta   113.06622393
_cell_angle_gamma   90.01763176
_symmetry_Int_Tables_number   1
_chemical_formula_structural   Li2MnNiO4
_chemical_formula_sum   'Li2 Mn1 Ni1 O4'
_cell_volume   70.89081594
_cell_formula_units_Z   1
loop_
 _symmetry_equiv_pos_site_id
 _symmetry_equiv_pos_as_xyz
  1  'x, y, z'
loop_
 _atom_site_type_symbol
 _atom_site_label
 _atom_site_symmetry_multiplicity
 _atom_site_fract_x
 _atom_site_fract_y
 _atom_site_fract_z
 _atom_site_occupancy
  Li  Li0  1  0.74999950  0.24999950  0.49999900  1.0
  Li  Li2  1  0.49999850  0.50000000  0.99999850  1.0
  Mn  Mn4  1  0.25000550  0.75000650  0.50000900  1.0
  Ni  Ni6  1  0.00000150  0.99999400  0.99999950  1.0
  O  O8  1  0.47284250  0.97284400  0.94568650  1.0
  O  O10  1  0.02715650  0.52715750  0.05431300  1.0
  O  O12  1  0.76062350  0.76062750  0.52125200  1.0
  O  O14  1  0.23937200  0.23937050  0.47874350  1.0
