# generated using pymatgen
data_Li2MnVO4
_symmetry_space_group_name_H-M   'P 1'
_cell_length_a   2.91689919
_cell_length_b   5.31025827
_cell_length_c   5.34929057
_cell_angle_alpha   112.76979414
_cell_angle_beta   89.98712519
_cell_angle_gamma   89.95124413
_symmetry_Int_Tables_number   1
_chemical_formula_structural   Li2MnVO4
_chemical_formula_sum   'Li2 Mn1 V1 O4'
_cell_volume   76.40040254
_cell_formula_units_Z   1
loop_
 _symmetry_equiv_pos_site_id
 _symmetry_equiv_pos_as_xyz
  1  'x, y, z'
loop_
 _atom_site_type_symbol
 _atom_site_label
 _atom_site_symmetry_multiplicity
 _atom_site_fract_x
 _atom_site_fract_y
 _atom_site_fract_z
 _atom_site_occupancy
  Li  Li0  1  0.99994950  0.00005550  0.00009750  1.0
  Li  Li2  1  0.49992800  0.00008750  0.50005900  1.0
  Mn  Mn4  1  0.49995250  0.49999900  0.99999850  1.0
  O  O8  1  0.99937150  0.71479750  0.23842150  1.0
  O  O10  1  0.00095250  0.28499450  0.76139750  1.0
  O  O12  1  0.49924150  0.74238150  0.73388150  1.0
  O  O14  1  0.50063200  0.25763150  0.26612000  1.0
  V  V6  1  0.99997300  0.50005250  0.50002500  1.0
