# generated using pymatgen
data_Li2MnSnO4
_symmetry_space_group_name_H-M   'P 1'
_cell_length_a   6.22322045
_cell_length_b   6.22322388
_cell_length_c   6.27694379
_cell_angle_alpha   60.31292678
_cell_angle_beta   60.31279956
_cell_angle_gamma   89.89117468
_symmetry_Int_Tables_number   1
_chemical_formula_structural   Li2MnSnO4
_chemical_formula_sum   'Li4 Mn2 Sn2 O8'
_cell_volume   173.66626631
_cell_formula_units_Z   2
loop_
 _symmetry_equiv_pos_site_id
 _symmetry_equiv_pos_as_xyz
  1  'x, y, z'
loop_
 _atom_site_type_symbol
 _atom_site_label
 _atom_site_symmetry_multiplicity
 _atom_site_fract_x
 _atom_site_fract_y
 _atom_site_fract_z
 _atom_site_occupancy
  Li  Li0  1  0.50000100  0.99999900  0.99999900  1.0
  Li  Li1  1  0.50000000  0.99999900  0.50000000  1.0
  Li  Li2  1  0.00000100  0.99999900  0.49999900  1.0
  Li  Li3  1  0.50000100  0.49999900  0.99999900  1.0
  Mn  Mn4  1  0.99999500  0.50000400  0.00000600  1.0
  Mn  Mn5  1  0.00000700  0.50001800  0.49999800  1.0
  Sn  Sn6  1  0.49999800  0.49999900  0.49999700  1.0
  Sn  Sn7  1  0.99999600  0.99999800  0.00000200  1.0
  O  O8  1  0.76922500  0.23947400  0.99272600  1.0
  O  O9  1  0.26052300  0.73077400  0.50727300  1.0
  O  O10  1  0.73947600  0.26922400  0.49272800  1.0
  O  O11  1  0.23077700  0.76052100  0.00727300  1.0
  O  O12  1  0.25765700  0.25136900  0.97945800  1.0
  O  O13  1  0.24863000  0.24234300  0.52054100  1.0
  O  O14  1  0.75136900  0.75765300  0.47946000  1.0
  O  O15  1  0.74234600  0.74862700  0.02054000  1.0
