# generated using pymatgen
data_Li2PdO3
_symmetry_space_group_name_H-M   'P 1'
_cell_length_a   5.14136449
_cell_length_b   5.19326000
_cell_length_c   5.19918380
_cell_angle_alpha   60.03768291
_cell_angle_beta   80.50121708
_cell_angle_gamma   70.70513581
_symmetry_Int_Tables_number   1
_chemical_formula_structural   Li2PdO3
_chemical_formula_sum   'Li4 Pd2 O6'
_cell_volume   113.51234309
_cell_formula_units_Z   2
loop_
 _symmetry_equiv_pos_site_id
 _symmetry_equiv_pos_as_xyz
  1  'x, y, z'
loop_
 _atom_site_type_symbol
 _atom_site_label
 _atom_site_symmetry_multiplicity
 _atom_site_fract_x
 _atom_site_fract_y
 _atom_site_fract_z
 _atom_site_occupancy
  Li  Li0  1  0.50000000  0.50000000  0.00000000  1.0
  Li  Li1  1  0.50000000  0.83118700  0.33762600  1.0
  Li  Li2  1  0.50000000  0.16881300  0.66237400  1.0
  Li  Li3  1  0.00000000  0.00000000  0.00000000  1.0
  Pd  Pd4  1  1.00000000  0.66674300  0.66651400  1.0
  Pd  Pd5  1  1.00000000  0.33325700  0.33348600  1.0
  O  O6  1  0.23669300  0.27112300  0.00000000  1.0
  O  O7  1  0.76626400  0.42325900  0.65231800  1.0
  O  O8  1  0.76626400  0.07557700  0.34768200  1.0
  O  O9  1  0.23373600  0.57674100  0.34768200  1.0
  O  O10  1  0.23373600  0.92442300  0.65231800  1.0
  O  O11  1  0.76330700  0.72887700  0.00000000  1.0
