# generated using pymatgen
data_Li2P2WO8
_symmetry_space_group_name_H-M   'P 1'
_cell_length_a   4.90575400
_cell_length_b   4.90575436
_cell_length_c   7.73741200
_cell_angle_alpha   90.00000000
_cell_angle_beta   90.00000000
_cell_angle_gamma   119.99999760
_symmetry_Int_Tables_number   1
_chemical_formula_structural   Li2P2WO8
_chemical_formula_sum   'Li2 P2 W1 O8'
_cell_volume   161.26418660
_cell_formula_units_Z   1
loop_
 _symmetry_equiv_pos_site_id
 _symmetry_equiv_pos_as_xyz
  1  'x, y, z'
loop_
 _atom_site_type_symbol
 _atom_site_label
 _atom_site_symmetry_multiplicity
 _atom_site_fract_x
 _atom_site_fract_y
 _atom_site_fract_z
 _atom_site_occupancy
  Li  Li0  1  0.66666667  0.33333333  0.83421900  1.0
  Li  Li1  1  0.33333333  0.66666667  0.16578100  1.0
  P  P2  1  0.66666667  0.33333333  0.26848300  1.0
  P  P3  1  0.33333333  0.66666667  0.73151700  1.0
  W  W4  1  0.00000000  0.00000000  0.50000000  1.0
  O  O5  1  0.95853700  0.64089900  0.33849300  1.0
  O  O6  1  0.66666667  0.33333333  0.07521600  1.0
  O  O7  1  0.68236200  0.04146400  0.33849300  1.0
  O  O8  1  0.35910200  0.31763900  0.33849300  1.0
  O  O9  1  0.64089800  0.68236100  0.66150700  1.0
  O  O10  1  0.31763800  0.95853600  0.66150700  1.0
  O  O11  1  0.33333333  0.66666667  0.92478400  1.0
  O  O12  1  0.04146300  0.35910100  0.66150700  1.0
