# generated using pymatgen
data_Li2SiNiO4
_symmetry_space_group_name_H-M   'P 1'
_cell_length_a   5.24221216
_cell_length_b   5.34128817
_cell_length_c   6.29030549
_cell_angle_alpha   89.98590926
_cell_angle_beta   89.98535319
_cell_angle_gamma   92.82883722
_symmetry_Int_Tables_number   1
_chemical_formula_structural   Li2SiNiO4
_chemical_formula_sum   'Li4 Si2 Ni2 O8'
_cell_volume   175.91495777
_cell_formula_units_Z   2
loop_
 _symmetry_equiv_pos_site_id
 _symmetry_equiv_pos_as_xyz
  1  'x, y, z'
loop_
 _atom_site_type_symbol
 _atom_site_label
 _atom_site_symmetry_multiplicity
 _atom_site_fract_x
 _atom_site_fract_y
 _atom_site_fract_z
 _atom_site_occupancy
  Li  Li0  1  0.81065500  0.82334500  0.25053100  1.0
  Li  Li1  1  0.18866300  0.17710700  0.75159800  1.0
  Li  Li2  1  0.31017400  0.68503300  0.49846800  1.0
  Li  Li3  1  0.68978100  0.31489600  0.99988600  1.0
  Si  Si4  1  0.81776300  0.83046300  0.75102000  1.0
  Si  Si5  1  0.18174800  0.16968300  0.25153700  1.0
  Ni  Ni6  1  0.68541900  0.32810700  0.49620600  1.0
  Ni  Ni7  1  0.31475200  0.67341700  0.99478600  1.0
  O  O8  1  0.21639500  0.86368900  0.24646200  1.0
  O  O9  1  0.78387600  0.13654300  0.74736900  1.0
  O  O10  1  0.13084000  0.80133100  0.74851000  1.0
  O  O11  1  0.86838300  0.19803000  0.25045000  1.0
  O  O12  1  0.69527300  0.69891100  0.96864500  1.0
  O  O13  1  0.30493200  0.30072500  0.46891400  1.0
  O  O14  1  0.68801900  0.69852700  0.53756300  1.0
  O  O15  1  0.31052800  0.30298800  0.03805000  1.0
