# generated using pymatgen
data_Li2Ti2O5
_symmetry_space_group_name_H-M   'P 1'
_cell_length_a   5.24714300
_cell_length_b   6.17824200
_cell_length_c   8.48860081
_cell_angle_alpha   111.34076603
_cell_angle_beta   90.00000000
_cell_angle_gamma   90.00000000
_symmetry_Int_Tables_number   1
_chemical_formula_structural   Li2Ti2O5
_chemical_formula_sum   'Li4 Ti4 O10'
_cell_volume   256.31577241
_cell_formula_units_Z   2
loop_
 _symmetry_equiv_pos_site_id
 _symmetry_equiv_pos_as_xyz
  1  'x, y, z'
loop_
 _atom_site_type_symbol
 _atom_site_label
 _atom_site_symmetry_multiplicity
 _atom_site_fract_x
 _atom_site_fract_y
 _atom_site_fract_z
 _atom_site_occupancy
  Li  Li0  1  0.64059300  0.40712700  0.11076000  1.0
  Li  Li1  1  0.14059300  0.29636700  0.88924000  1.0
  Li  Li2  1  0.64059300  0.59287300  0.88924000  1.0
  Li  Li3  1  0.14059300  0.70363300  0.11076000  1.0
  Ti  Ti4  1  0.64025900  0.01353600  0.71449900  1.0
  Ti  Ti5  1  0.14025900  0.29903700  0.28550100  1.0
  Ti  Ti6  1  0.14025900  0.70096300  0.71449900  1.0
  Ti  Ti7  1  0.64025900  0.98646400  0.28550100  1.0
  O  O8  1  0.56550000  1.00000000  0.50000000  1.0
  O  O9  1  0.02519100  0.40763100  0.13339000  1.0
  O  O10  1  0.52519100  0.27424100  0.86661000  1.0
  O  O11  1  0.98859300  0.00943100  0.25058700  1.0
  O  O12  1  0.48859300  0.75884400  0.74941300  1.0
  O  O13  1  0.48859300  0.24115600  0.25058700  1.0
  O  O14  1  0.98859300  0.99056900  0.74941300  1.0
  O  O15  1  0.02519100  0.59236900  0.86661000  1.0
  O  O16  1  0.52519100  0.72575900  0.13339000  1.0
  O  O17  1  0.06550000  0.50000000  0.50000000  1.0
