# generated using pymatgen
data_Li2TiNi2O5
_symmetry_space_group_name_H-M   'P 1'
_cell_length_a   5.03235575
_cell_length_b   5.07822099
_cell_length_c   7.84107536
_cell_angle_alpha   84.11646691
_cell_angle_beta   71.28346990
_cell_angle_gamma   71.36467338
_symmetry_Int_Tables_number   1
_chemical_formula_structural   Li2TiNi2O5
_chemical_formula_sum   'Li4 Ti2 Ni4 O10'
_cell_volume   179.83513789
_cell_formula_units_Z   2
loop_
 _symmetry_equiv_pos_site_id
 _symmetry_equiv_pos_as_xyz
  1  'x, y, z'
loop_
 _atom_site_type_symbol
 _atom_site_label
 _atom_site_symmetry_multiplicity
 _atom_site_fract_x
 _atom_site_fract_y
 _atom_site_fract_z
 _atom_site_occupancy
  Li  Li0  1  0.90265200  0.50000600  0.19470500  1.0
  Li  Li1  1  0.79735200  0.99999200  0.40528800  1.0
  Li  Li2  1  0.09904600  0.50000500  0.80187800  1.0
  Li  Li3  1  0.60095500  0.99999400  0.79812100  1.0
  Ti  Ti4  1  0.70363300  0.50000000  0.59270800  1.0
  Ti  Ti5  1  0.99637200  0.00000100  0.00728100  1.0
  Ni  Ni6  1  0.39869000  0.99998600  0.20263900  1.0
  Ni  Ni7  1  0.50237700  0.49999800  0.99531600  1.0
  Ni  Ni8  1  0.30128900  0.50001400  0.39740700  1.0
  Ni  Ni9  1  0.19762500  0.00000200  0.60466800  1.0
  O  O10  1  0.85001400  0.25001500  0.79999200  1.0
  O  O11  1  0.34999400  0.74998600  0.79999200  1.0
  O  O12  1  0.65980600  0.24310800  0.18742400  1.0
  O  O13  1  0.04020600  0.25689900  0.41258000  1.0
  O  O14  1  0.54722000  0.74307400  0.41257400  1.0
  O  O15  1  0.15276200  0.75692000  0.18743200  1.0
  O  O16  1  0.46296400  0.26657600  0.59650300  1.0
  O  O17  1  0.94052700  0.73342100  0.59650800  1.0
  O  O18  1  0.23706300  0.23339000  0.00349300  1.0
  O  O19  1  0.75945100  0.76661100  0.00348900  1.0
