# generated using pymatgen
data_Li2Tl
_symmetry_space_group_name_H-M   'P 1'
_cell_length_a   4.70082200
_cell_length_b   4.86393600
_cell_length_c   5.59168714
_cell_angle_alpha   90.00000000
_cell_angle_beta   114.85606885
_cell_angle_gamma   90.00000000
_symmetry_Int_Tables_number   1
_chemical_formula_structural   Li2Tl
_chemical_formula_sum   'Li4 Tl2'
_cell_volume   116.00782903
_cell_formula_units_Z   2
loop_
 _symmetry_equiv_pos_site_id
 _symmetry_equiv_pos_as_xyz
  1  'x, y, z'
loop_
 _atom_site_type_symbol
 _atom_site_label
 _atom_site_symmetry_multiplicity
 _atom_site_fract_x
 _atom_site_fract_y
 _atom_site_fract_z
 _atom_site_occupancy
  Li  Li0  1  0.24093700  0.75000000  0.48187400  1.0
  Li  Li1  1  0.75906300  0.25000000  0.51812600  1.0
  Li  Li2  1  0.58526900  0.75000000  0.17053800  1.0
  Li  Li3  1  0.41473100  0.25000000  0.82946200  1.0
  Tl  Tl4  1  0.90296500  0.75000000  0.80593000  1.0
  Tl  Tl5  1  0.09703500  0.25000000  0.19407000  1.0
