# generated using pymatgen
data_Li2VCrO4
_symmetry_space_group_name_H-M   'P 1'
_cell_length_a   5.92519200
_cell_length_b   5.97822975
_cell_length_c   5.93788000
_cell_angle_alpha   119.77698012
_cell_angle_beta   90.00000000
_cell_angle_gamma   119.70695413
_symmetry_Int_Tables_number   1
_chemical_formula_structural   Li2VCrO4
_chemical_formula_sum   'Li4 V2 Cr2 O8'
_cell_volume   149.88012822
_cell_formula_units_Z   2
loop_
 _symmetry_equiv_pos_site_id
 _symmetry_equiv_pos_as_xyz
  1  'x, y, z'
loop_
 _atom_site_type_symbol
 _atom_site_label
 _atom_site_symmetry_multiplicity
 _atom_site_fract_x
 _atom_site_fract_y
 _atom_site_fract_z
 _atom_site_occupancy
  Li  Li0  1  0.00000000  0.00000000  0.00000000  1.0
  Li  Li1  1  0.50000000  0.50000000  0.00000000  1.0
  Li  Li2  1  1.00000000  1.00000000  0.50000000  1.0
  Li  Li3  1  1.00000000  0.50000000  1.00000000  1.0
  V  V4  1  0.50000000  0.50000000  0.50000000  1.0
  V  V5  1  0.00000000  0.50000000  0.50000000  1.0
  Cr  Cr6  1  0.50000000  1.00000000  1.00000000  1.0
  Cr  Cr7  1  0.50000000  0.00000000  0.50000000  1.0
  O  O8  1  0.72999900  0.99270500  0.74635200  1.0
  O  O9  1  0.26052900  0.52105800  0.27305800  1.0
  O  O10  1  0.26053000  0.52105900  0.74800000  1.0
  O  O11  1  0.73729300  0.00729400  0.25364700  1.0
  O  O12  1  0.26270700  0.99270600  0.74635300  1.0
  O  O13  1  0.73947000  0.47894100  0.25200000  1.0
  O  O14  1  0.73947100  0.47894200  0.72694200  1.0
  O  O15  1  0.27000100  0.00729500  0.25364800  1.0
