# generated using pymatgen
data_Li2VF6
_symmetry_space_group_name_H-M   'P 1'
_cell_length_a   5.55098800
_cell_length_b   5.61415600
_cell_length_c   8.40838317
_cell_angle_alpha   90.00000000
_cell_angle_beta   109.27402743
_cell_angle_gamma   90.00000000
_symmetry_Int_Tables_number   1
_chemical_formula_structural   Li2VF6
_chemical_formula_sum   'Li4 V2 F12'
_cell_volume   247.35264703
_cell_formula_units_Z   2
loop_
 _symmetry_equiv_pos_site_id
 _symmetry_equiv_pos_as_xyz
  1  'x, y, z'
loop_
 _atom_site_type_symbol
 _atom_site_label
 _atom_site_symmetry_multiplicity
 _atom_site_fract_x
 _atom_site_fract_y
 _atom_site_fract_z
 _atom_site_occupancy
  Li  Li0  1  0.86512000  0.75000000  0.73024000  1.0
  Li  Li1  1  0.16605900  0.75000000  0.33211800  1.0
  Li  Li2  1  0.83394100  0.25000000  0.66788200  1.0
  Li  Li3  1  0.13488000  0.25000000  0.26976000  1.0
  V  V4  1  0.37847500  0.25000000  0.75695000  1.0
  V  V5  1  0.62152500  0.75000000  0.24305000  1.0
  F  F6  1  0.51063000  0.75000000  0.02126000  1.0
  F  F7  1  0.62868300  0.02048300  0.74251500  1.0
  F  F8  1  0.62868300  0.47951700  0.74251500  1.0
  F  F9  1  0.11383200  0.02048300  0.74251500  1.0
  F  F10  1  0.11383200  0.47951700  0.74251500  1.0
  F  F11  1  0.26014800  0.25000000  0.52029600  1.0
  F  F12  1  0.73985200  0.75000000  0.47970400  1.0
  F  F13  1  0.37131700  0.97951700  0.25748500  1.0
  F  F14  1  0.88616800  0.52048300  0.25748500  1.0
  F  F15  1  0.88616800  0.97951700  0.25748500  1.0
  F  F16  1  0.37131700  0.52048300  0.25748500  1.0
  F  F17  1  0.48937000  0.25000000  0.97874000  1.0
