# generated using pymatgen
data_Li2VO2F
_symmetry_space_group_name_H-M   'P 1'
_cell_length_a   2.94545613
_cell_length_b   5.16135071
_cell_length_c   7.90396545
_cell_angle_alpha   77.37939252
_cell_angle_beta   79.26140268
_cell_angle_gamma   73.42153932
_symmetry_Int_Tables_number   1
_chemical_formula_structural   Li2VO2F
_chemical_formula_sum   'Li4 V2 O4 F2'
_cell_volume   111.39074083
_cell_formula_units_Z   2
loop_
 _symmetry_equiv_pos_site_id
 _symmetry_equiv_pos_as_xyz
  1  'x, y, z'
loop_
 _atom_site_type_symbol
 _atom_site_label
 _atom_site_symmetry_multiplicity
 _atom_site_fract_x
 _atom_site_fract_y
 _atom_site_fract_z
 _atom_site_occupancy
  Li  Li0  1  0.33332900  0.50001100  0.83333000  1.0
  Li  Li1  1  0.33338133  0.99995200  0.33333333  1.0
  Li  Li2  1  0.98548400  0.52238900  0.50669900  1.0
  Li  Li3  1  0.68116900  0.47761000  0.15996400  1.0
  V  V4  1  0.99754200  0.00645400  0.99837600  1.0
  V  V5  1  0.66911100  0.99358300  0.66829900  1.0
  O  O6  1  0.00978100  0.23326000  0.74718600  1.0
  O  O7  1  0.65688200  0.76673900  0.91949800  1.0
  O  O8  1  0.32024200  0.77683700  0.58277900  1.0
  O  O9  1  0.34641200  0.22319500  0.08390400  1.0
  F  F10  1  0.66354600  0.25505600  0.41809400  1.0
  F  F11  1  0.00313300  0.74491600  0.24855100  1.0
