# generated using pymatgen
data_Li3Co(NiO3)2
_symmetry_space_group_name_H-M   'P 1'
_cell_length_a   2.84505600
_cell_length_b   5.76674771
_cell_length_c   6.61529570
_cell_angle_alpha   102.82234306
_cell_angle_beta   102.41765066
_cell_angle_gamma   90.00000000
_symmetry_Int_Tables_number   1
_chemical_formula_structural   Li3Co(NiO3)2
_chemical_formula_sum   'Li3 Co1 Ni2 O6'
_cell_volume   103.22312782
_cell_formula_units_Z   1
loop_
 _symmetry_equiv_pos_site_id
 _symmetry_equiv_pos_as_xyz
  1  'x, y, z'
loop_
 _atom_site_type_symbol
 _atom_site_label
 _atom_site_symmetry_multiplicity
 _atom_site_fract_x
 _atom_site_fract_y
 _atom_site_fract_z
 _atom_site_occupancy
  Li  Li0  1  0.00000000  0.00000000  0.00000000  1.0
  Li  Li1  1  0.66381700  0.32644700  0.32763400  1.0
  Li  Li2  1  0.33618300  0.67355300  0.67236600  1.0
  Co  Co3  1  0.00000000  0.50000000  0.00000000  1.0
  Ni  Ni4  1  0.66405300  0.83361800  0.32810600  1.0
  Ni  Ni5  1  0.33594700  0.16638200  0.67189400  1.0
  O  O6  1  0.15368900  0.59660700  0.30737800  1.0
  O  O7  1  0.84631100  0.40339300  0.69262200  1.0
  O  O8  1  0.49891600  0.72431700  0.99783200  1.0
  O  O9  1  0.83135100  0.93451700  0.66270200  1.0
  O  O10  1  0.50108400  0.27568300  0.00216800  1.0
  O  O11  1  0.16864900  0.06548300  0.33729800  1.0
