# generated using pymatgen
data_Li3Mn(CoO2)4
_symmetry_space_group_name_H-M   'P 1'
_cell_length_a   5.93442156
_cell_length_b   5.93442156
_cell_length_c   5.93837280
_cell_angle_alpha   90.78411681
_cell_angle_beta   119.18592277
_cell_angle_gamma   119.88997424
_symmetry_Int_Tables_number   1
_chemical_formula_structural   Li3Mn(CoO2)4
_chemical_formula_sum   'Li3 Mn1 Co4 O8'
_cell_volume   148.91515015
_cell_formula_units_Z   1
loop_
 _symmetry_equiv_pos_site_id
 _symmetry_equiv_pos_as_xyz
  1  'x, y, z'
loop_
 _atom_site_type_symbol
 _atom_site_label
 _atom_site_symmetry_multiplicity
 _atom_site_fract_x
 _atom_site_fract_y
 _atom_site_fract_z
 _atom_site_occupancy
  Li  Li0  1  0.50000000  0.00000000  0.00000000  1.0
  Li  Li1  1  0.50000000  0.00000000  0.50000000  1.0
  Li  Li2  1  0.00000000  0.50000000  0.00000000  1.0
  Mn  Mn3  1  0.50000000  0.50000000  0.00000000  1.0
  Co  Co4  1  0.00000000  0.50000000  0.50000000  1.0
  Co  Co5  1  0.00000000  0.00000000  0.00000000  1.0
  Co  Co6  1  0.00000000  0.00000000  0.50000000  1.0
  Co  Co7  1  0.50000000  0.50000000  0.50000000  1.0
  O  O8  1  0.50656300  0.73563300  0.24219600  1.0
  O  O9  1  0.50039900  0.73245600  0.76724900  1.0
  O  O10  1  0.03479300  0.26685000  0.76724900  1.0
  O  O11  1  0.01454600  0.25040400  0.26495000  1.0
  O  O12  1  0.98545400  0.74959600  0.73505000  1.0
  O  O13  1  0.96520700  0.73315000  0.23275100  1.0
  O  O14  1  0.49960100  0.26754400  0.23275100  1.0
  O  O15  1  0.49343700  0.26436700  0.75780400  1.0
