# generated using pymatgen
data_Li3Nb(FeO2)4
_symmetry_space_group_name_H-M   'P 1'
_cell_length_a   6.08721740
_cell_length_b   6.08721740
_cell_length_c   6.12844209
_cell_angle_alpha   92.50229172
_cell_angle_beta   118.55741981
_cell_angle_gamma   118.34426475
_symmetry_Int_Tables_number   1
_chemical_formula_structural   Li3Nb(FeO2)4
_chemical_formula_sum   'Li3 Nb1 Fe4 O8'
_cell_volume   164.43650716
_cell_formula_units_Z   1
loop_
 _symmetry_equiv_pos_site_id
 _symmetry_equiv_pos_as_xyz
  1  'x, y, z'
loop_
 _atom_site_type_symbol
 _atom_site_label
 _atom_site_symmetry_multiplicity
 _atom_site_fract_x
 _atom_site_fract_y
 _atom_site_fract_z
 _atom_site_occupancy
  Li  Li0  1  0.50000000  1.00000000  1.00000000  1.0
  Li  Li1  1  1.00000000  0.50000000  1.00000000  1.0
  Li  Li2  1  0.50000000  0.00000000  0.50000000  1.0
  Nb  Nb3  1  0.50000000  0.50000000  1.00000000  1.0
  Fe  Fe4  1  0.00000000  0.00000000  0.00000000  1.0
  Fe  Fe5  1  0.50000000  0.50000000  0.50000000  1.0
  Fe  Fe6  1  0.00000000  1.00000000  0.50000000  1.0
  Fe  Fe7  1  0.00000000  0.50000000  0.50000000  1.0
  O  O8  1  0.50274800  0.26087600  0.76362400  1.0
  O  O9  1  0.96720100  0.72633900  0.22650200  1.0
  O  O10  1  0.50016300  0.25930100  0.22650200  1.0
  O  O11  1  0.49725200  0.73912400  0.23637600  1.0
  O  O12  1  0.97641800  0.75011800  0.72653600  1.0
  O  O13  1  0.03279900  0.27366100  0.77349800  1.0
  O  O14  1  0.49983700  0.74069900  0.77349800  1.0
  O  O15  1  0.02358200  0.24988200  0.27346400  1.0
