# generated using pymatgen
data_Li3Ti(FeO2)4
_symmetry_space_group_name_H-M   'P 1'
_cell_length_a   6.02042145
_cell_length_b   6.02042145
_cell_length_c   6.02599008
_cell_angle_alpha   91.11836446
_cell_angle_beta   119.57043533
_cell_angle_gamma   119.11174235
_symmetry_Int_Tables_number   1
_chemical_formula_structural   Li3Ti(FeO2)4
_chemical_formula_sum   'Li3 Ti1 Fe4 O8'
_cell_volume   155.98172493
_cell_formula_units_Z   1
loop_
 _symmetry_equiv_pos_site_id
 _symmetry_equiv_pos_as_xyz
  1  'x, y, z'
loop_
 _atom_site_type_symbol
 _atom_site_label
 _atom_site_symmetry_multiplicity
 _atom_site_fract_x
 _atom_site_fract_y
 _atom_site_fract_z
 _atom_site_occupancy
  Li  Li0  1  0.50000000  1.00000000  0.00000000  1.0
  Li  Li1  1  0.50000000  0.00000000  0.50000000  1.0
  Li  Li2  1  0.00000000  0.50000000  0.00000000  1.0
  Ti  Ti3  1  0.50000000  0.50000000  0.00000000  1.0
  Fe  Fe4  1  0.00000000  0.50000000  0.50000000  1.0
  Fe  Fe5  1  0.00000000  0.00000000  0.00000000  1.0
  Fe  Fe6  1  1.00000000  1.00000000  0.50000000  1.0
  Fe  Fe7  1  0.50000000  0.50000000  0.50000000  1.0
  O  O8  1  0.51103600  0.73326800  0.24430400  1.0
  O  O9  1  0.48400200  0.73277300  0.76100000  1.0
  O  O10  1  0.02822700  0.27699800  0.76100000  1.0
  O  O11  1  0.99956100  0.25469000  0.25425100  1.0
  O  O12  1  0.00043900  0.74531000  0.74574900  1.0
  O  O13  1  0.97177300  0.72300200  0.23900000  1.0
  O  O14  1  0.51599800  0.26722700  0.23900000  1.0
  O  O15  1  0.48896400  0.26673200  0.75569600  1.0
