# generated using pymatgen
data_Li3VF6
_symmetry_space_group_name_H-M   'P 1'
_cell_length_a   5.18467700
_cell_length_b   5.22685600
_cell_length_c   7.77821813
_cell_angle_alpha   90.00000000
_cell_angle_beta   89.62216363
_cell_angle_gamma   90.00000000
_symmetry_Int_Tables_number   1
_chemical_formula_structural   Li3VF6
_chemical_formula_sum   'Li6 V2 F12'
_cell_volume   210.78170624
_cell_formula_units_Z   2
loop_
 _symmetry_equiv_pos_site_id
 _symmetry_equiv_pos_as_xyz
  1  'x, y, z'
loop_
 _atom_site_type_symbol
 _atom_site_label
 _atom_site_symmetry_multiplicity
 _atom_site_fract_x
 _atom_site_fract_y
 _atom_site_fract_z
 _atom_site_occupancy
  Li  Li0  1  0.50000000  0.50000000  1.00000000  1.0
  Li  Li1  1  0.48573000  0.03083000  0.23638700  1.0
  Li  Li2  1  0.01427000  0.53083000  0.26361300  1.0
  Li  Li3  1  0.00000000  1.00000000  0.50000000  1.0
  Li  Li4  1  0.98573000  0.46917000  0.73638700  1.0
  Li  Li5  1  0.51427000  0.96917000  0.76361300  1.0
  V  V6  1  0.50000000  0.50000000  0.50000000  1.0
  V  V7  1  0.00000000  0.00000000  0.00000000  1.0
  F  F8  1  0.37146300  0.40512300  0.26155000  1.0
  F  F9  1  0.34423100  0.18247000  0.58273200  1.0
  F  F10  1  0.32622100  0.17142000  0.94253600  1.0
  F  F11  1  0.17377900  0.67142000  0.55746400  1.0
  F  F12  1  0.15576900  0.68247000  0.91726800  1.0
  F  F13  1  0.12853700  0.90512300  0.23845000  1.0
  F  F14  1  0.87146300  0.09487700  0.76155000  1.0
  F  F15  1  0.84423100  0.31753000  0.08273200  1.0
  F  F16  1  0.82622100  0.32858000  0.44253600  1.0
  F  F17  1  0.67377900  0.82858000  0.05746400  1.0
  F  F18  1  0.65576900  0.81753000  0.41726800  1.0
  F  F19  1  0.62853700  0.59487700  0.73845000  1.0
