# generated using pymatgen
data_Li3V2NiO6
_symmetry_space_group_name_H-M   'P 1'
_cell_length_a   2.98381800
_cell_length_b   5.94068895
_cell_length_c   6.55657433
_cell_angle_alpha   103.65773881
_cell_angle_beta   103.15251841
_cell_angle_gamma   90.00000000
_symmetry_Int_Tables_number   1
_chemical_formula_structural   Li3V2NiO6
_chemical_formula_sum   'Li3 V2 Ni1 O6'
_cell_volume   109.79512057
_cell_formula_units_Z   1
loop_
 _symmetry_equiv_pos_site_id
 _symmetry_equiv_pos_as_xyz
  1  'x, y, z'
loop_
 _atom_site_type_symbol
 _atom_site_label
 _atom_site_symmetry_multiplicity
 _atom_site_fract_x
 _atom_site_fract_y
 _atom_site_fract_z
 _atom_site_occupancy
  Li  Li0  1  0.00000000  0.00000000  0.00000000  1.0
  Li  Li1  1  0.33758500  0.66005100  0.67517000  1.0
  Li  Li2  1  0.66241500  0.33994900  0.32483000  1.0
  V  V3  1  0.33507500  0.16838400  0.67015000  1.0
  V  V4  1  0.66492500  0.83161600  0.32985000  1.0
  Ni  Ni5  1  0.00000000  0.50000000  0.00000000  1.0
  O  O6  1  0.83166000  0.39468700  0.66332000  1.0
  O  O7  1  0.17225100  0.07051300  0.34450200  1.0
  O  O8  1  0.16834000  0.60531300  0.33668000  1.0
  O  O9  1  0.51042300  0.75088000  0.02084600  1.0
  O  O10  1  0.48957700  0.24912000  0.97915400  1.0
  O  O11  1  0.82774900  0.92948700  0.65549800  1.0
