# generated using pymatgen
data_Li4(CuO2)3
_symmetry_space_group_name_H-M   'P 1'
_cell_length_a   3.52741400
_cell_length_b   5.34698425
_cell_length_c   8.37610315
_cell_angle_alpha   105.15475186
_cell_angle_beta   90.00000000
_cell_angle_gamma   109.25971956
_symmetry_Int_Tables_number   1
_chemical_formula_structural   Li4(CuO2)3
_chemical_formula_sum   'Li4 Cu3 O6'
_cell_volume   143.30747658
_cell_formula_units_Z   1
loop_
 _symmetry_equiv_pos_site_id
 _symmetry_equiv_pos_as_xyz
  1  'x, y, z'
loop_
 _atom_site_type_symbol
 _atom_site_label
 _atom_site_symmetry_multiplicity
 _atom_site_fract_x
 _atom_site_fract_y
 _atom_site_fract_z
 _atom_site_occupancy
  Li  Li0  1  0.22104000  0.44208000  0.25542200  1.0
  Li  Li1  1  0.77639100  0.55278200  0.07863900  1.0
  Li  Li2  1  0.22027500  0.44055000  0.55946500  1.0
  Li  Li3  1  0.78137300  0.56274600  0.77399000  1.0
  Cu  Cu4  1  0.50096400  0.00192800  0.66578600  1.0
  Cu  Cu5  1  0.50291400  0.00582800  0.33724400  1.0
  Cu  Cu6  1  0.49561100  0.99122200  0.99630100  1.0
  O  O7  1  0.63075900  0.26151800  0.21160400  1.0
  O  O8  1  0.37489900  0.74979800  0.45860300  1.0
  O  O9  1  0.62796200  0.25592400  0.87188500  1.0
  O  O10  1  0.36735500  0.73471000  0.13306400  1.0
  O  O11  1  0.63348800  0.26697600  0.54807900  1.0
  O  O12  1  0.36507500  0.73015000  0.77658300  1.0
