# generated using pymatgen
data_Li4CuSi2O7
_symmetry_space_group_name_H-M   'P 1'
_cell_length_a   4.50925600
_cell_length_b   5.30588682
_cell_length_c   6.78839003
_cell_angle_alpha   99.14971612
_cell_angle_beta   90.00000000
_cell_angle_gamma   115.14620304
_symmetry_Int_Tables_number   1
_chemical_formula_structural   Li4CuSi2O7
_chemical_formula_sum   'Li4 Cu1 Si2 O7'
_cell_volume   144.73738050
_cell_formula_units_Z   1
loop_
 _symmetry_equiv_pos_site_id
 _symmetry_equiv_pos_as_xyz
  1  'x, y, z'
loop_
 _atom_site_type_symbol
 _atom_site_label
 _atom_site_symmetry_multiplicity
 _atom_site_fract_x
 _atom_site_fract_y
 _atom_site_fract_z
 _atom_site_occupancy
  Li  Li0  1  0.16030500  0.29298900  0.93487900  1.0
  Li  Li1  1  0.71975200  0.42350000  0.64468100  1.0
  Li  Li2  1  0.29625200  0.57650000  0.35531900  1.0
  Li  Li3  1  0.86731600  0.70701100  0.06512100  1.0
  Cu  Cu4  1  0.00185400  0.00000000  0.50000000  1.0
  Si  Si5  1  0.56562500  0.15113700  0.21017200  1.0
  Si  Si6  1  0.41448800  0.84886300  0.78982800  1.0
  O  O7  1  0.33160600  0.09934800  0.72497400  1.0
  O  O8  1  0.86229200  0.25928600  0.38733900  1.0
  O  O9  1  0.49949900  0.40933400  0.15522700  1.0
  O  O10  1  0.09016500  0.59066600  0.84477300  1.0
  O  O11  1  0.60300600  0.74071400  0.61266100  1.0
  O  O12  1  0.23225800  0.90065200  0.27502600  1.0
  O  O13  1  0.68253700  0.00000000  0.00000000  1.0
