# generated using pymatgen
data_Li4Cr3CoO8
_symmetry_space_group_name_H-M   'P 1'
_cell_length_a   5.92015651
_cell_length_b   5.92015651
_cell_length_c   5.93657505
_cell_angle_alpha   60.09144662
_cell_angle_beta   60.09144662
_cell_angle_gamma   59.99999427
_symmetry_Int_Tables_number   1
_chemical_formula_structural   Li4Cr3CoO8
_chemical_formula_sum   'Li4 Cr3 Co1 O8'
_cell_volume   147.32831763
_cell_formula_units_Z   1
loop_
 _symmetry_equiv_pos_site_id
 _symmetry_equiv_pos_as_xyz
  1  'x, y, z'
loop_
 _atom_site_type_symbol
 _atom_site_label
 _atom_site_symmetry_multiplicity
 _atom_site_fract_x
 _atom_site_fract_y
 _atom_site_fract_z
 _atom_site_occupancy
  Li  Li0  1  0.00000000  0.50000000  0.00000000  1.0
  Li  Li1  1  0.50000000  0.50000000  0.00000000  1.0
  Li  Li2  1  0.00000000  0.00000000  0.00000000  1.0
  Li  Li3  1  0.50000000  0.00000000  0.00000000  1.0
  Cr  Cr4  1  0.00000000  0.50000000  0.50000000  1.0
  Cr  Cr5  1  0.50000000  0.00000000  0.50000000  1.0
  Cr  Cr6  1  0.00000000  0.00000000  0.50000000  1.0
  Co  Co7  1  0.50000000  0.50000000  0.50000000  1.0
  O  O8  1  0.25825200  0.25825200  0.72735500  1.0
  O  O9  1  0.75614100  0.25825200  0.72735500  1.0
  O  O10  1  0.24162900  0.24162900  0.27511300  1.0
  O  O11  1  0.25825200  0.75614100  0.72735500  1.0
  O  O12  1  0.74174800  0.24385900  0.27264500  1.0
  O  O13  1  0.24385900  0.74174800  0.27264500  1.0
  O  O14  1  0.75837100  0.75837100  0.72488700  1.0
  O  O15  1  0.74174800  0.74174800  0.27264500  1.0
