# generated using pymatgen
data_Li4HN
_symmetry_space_group_name_H-M   'P 1'
_cell_length_a   4.85564000
_cell_length_b   4.85564000
_cell_length_c   6.04013068
_cell_angle_alpha   113.70003008
_cell_angle_beta   113.70003009
_cell_angle_gamma   89.99999999
_symmetry_Int_Tables_number   1
_chemical_formula_structural   Li4HN
_chemical_formula_sum   'Li8 H2 N2'
_cell_volume   117.16383975
_cell_formula_units_Z   2
loop_
 _symmetry_equiv_pos_site_id
 _symmetry_equiv_pos_as_xyz
  1  'x, y, z'
loop_
 _atom_site_type_symbol
 _atom_site_label
 _atom_site_symmetry_multiplicity
 _atom_site_fract_x
 _atom_site_fract_y
 _atom_site_fract_z
 _atom_site_occupancy
  Li  Li0  1  0.90133100  0.38373800  0.18384300  1.0
  Li  Li1  1  0.13373800  0.53251200  0.68384300  1.0
  Li  Li2  1  0.55010500  0.15133100  0.68384300  1.0
  Li  Li3  1  0.28251200  0.80010500  0.18384300  1.0
  Li  Li4  1  0.84866900  0.86626200  0.31615700  1.0
  Li  Li5  1  0.61626200  0.71748800  0.81615700  1.0
  Li  Li6  1  0.19989500  0.09866900  0.81615700  1.0
  Li  Li7  1  0.46748800  0.44989500  0.31615700  1.0
  H  H8  1  0.00000000  0.00000000  0.00000000  1.0
  H  H9  1  0.75000000  0.25000000  0.50000000  1.0
  N  N10  1  0.50000000  0.50000000  1.00000000  1.0
  N  N11  1  0.25000000  0.75000000  0.50000000  1.0
