# generated using pymatgen
data_Li4TiNi3O8
_symmetry_space_group_name_H-M   'P 1'
_cell_length_a   5.82560500
_cell_length_b   5.87843287
_cell_length_c   5.88294443
_cell_angle_alpha   119.50081186
_cell_angle_beta   89.99980589
_cell_angle_gamma   119.70325333
_symmetry_Int_Tables_number   1
_chemical_formula_structural   Li4TiNi3O8
_chemical_formula_sum   'Li4 Ti1 Ni3 O8'
_cell_volume   144.15310511
_cell_formula_units_Z   1
loop_
 _symmetry_equiv_pos_site_id
 _symmetry_equiv_pos_as_xyz
  1  'x, y, z'
loop_
 _atom_site_type_symbol
 _atom_site_label
 _atom_site_symmetry_multiplicity
 _atom_site_fract_x
 _atom_site_fract_y
 _atom_site_fract_z
 _atom_site_occupancy
  Li  Li0  1  0.00000100  0.50000000  0.49999600  1.0
  Li  Li1  1  0.50000300  0.00000100  0.50000000  1.0
  Li  Li2  1  0.00000100  0.99999600  0.49999600  1.0
  Li  Li3  1  0.50000400  0.50000000  0.49999600  1.0
  Ti  Ti4  1  0.00000300  0.00000100  0.00000100  1.0
  Ni  Ni5  1  0.49992100  0.50000500  0.00001900  1.0
  Ni  Ni6  1  0.50000000  0.99999700  0.99999600  1.0
  Ni  Ni7  1  0.00005700  0.49999800  0.00000700  1.0
  O  O8  1  0.75895600  0.99918200  0.76348900  1.0
  O  O9  1  0.24104600  0.00082000  0.23651100  1.0
  O  O10  1  0.26316600  0.52630300  0.78457000  1.0
  O  O11  1  0.23899300  0.47795000  0.22828800  1.0
  O  O12  1  0.73683700  0.47369700  0.21542800  1.0
  O  O13  1  0.76101000  0.52204800  0.77170600  1.0
  O  O14  1  0.24021700  0.99917200  0.76348700  1.0
  O  O15  1  0.75978600  0.00082900  0.23650800  1.0
