# generated using pymatgen
data_Li4TiS4
_symmetry_space_group_name_H-M   'P 1'
_cell_length_a   5.86897800
_cell_length_b   5.86897800
_cell_length_c   6.89287481
_cell_angle_alpha   115.19674474
_cell_angle_beta   115.19674473
_cell_angle_gamma   90.00000000
_symmetry_Int_Tables_number   1
_chemical_formula_structural   Li4TiS4
_chemical_formula_sum   'Li4 Ti1 S4'
_cell_volume   189.56989924
_cell_formula_units_Z   1
loop_
 _symmetry_equiv_pos_site_id
 _symmetry_equiv_pos_as_xyz
  1  'x, y, z'
loop_
 _atom_site_type_symbol
 _atom_site_label
 _atom_site_symmetry_multiplicity
 _atom_site_fract_x
 _atom_site_fract_y
 _atom_site_fract_z
 _atom_site_occupancy
  Li  Li0  1  0.50000000  1.00000000  1.00000000  1.0
  Li  Li1  1  1.00000000  0.50000000  0.00000000  1.0
  Li  Li2  1  0.72523400  0.72523400  0.45046800  1.0
  Li  Li3  1  0.27476600  0.27476600  0.54953200  1.0
  Ti  Ti4  1  0.00000000  0.00000000  0.00000000  1.0
  S  S5  1  0.34135700  0.89673100  0.23808800  1.0
  S  S6  1  0.65864300  0.65864300  0.76191300  1.0
  S  S7  1  0.89673000  0.34135600  0.23808600  1.0
  S  S8  1  0.10327000  0.10327000  0.76191300  1.0
