# generated using pymatgen
data_Li4V5O9F
_symmetry_space_group_name_H-M   'P 1'
_cell_length_a   5.18582315
_cell_length_b   5.23388754
_cell_length_c   7.99786461
_cell_angle_alpha   71.24929583
_cell_angle_beta   78.41953986
_cell_angle_gamma   100.74927275
_symmetry_Int_Tables_number   1
_chemical_formula_structural   Li4V5O9F
_chemical_formula_sum   'Li4 V5 O9 F1'
_cell_volume   193.85865106
_cell_formula_units_Z   1
loop_
 _symmetry_equiv_pos_site_id
 _symmetry_equiv_pos_as_xyz
  1  'x, y, z'
loop_
 _atom_site_type_symbol
 _atom_site_label
 _atom_site_symmetry_multiplicity
 _atom_site_fract_x
 _atom_site_fract_y
 _atom_site_fract_z
 _atom_site_occupancy
  Li  Li0  1  0.70652000  0.40613900  0.09735800  1.0
  Li  Li1  1  0.09385800  0.19161200  0.31444000  1.0
  Li  Li2  1  0.50747800  0.00292100  0.49166300  1.0
  Li  Li3  1  0.31590900  0.58432500  0.89888200  1.0
  V  V4  1  0.99622500  0.99439200  0.00595000  1.0
  V  V5  1  0.39533500  0.80186300  0.19823700  1.0
  V  V6  1  0.19451900  0.41153500  0.59702400  1.0
  V  V7  1  0.79450200  0.60615700  0.40387100  1.0
  V  V8  1  0.61663600  0.20809100  0.79971500  1.0
  O  O9  1  0.04648900  0.62188200  0.15127100  1.0
  O  O10  1  0.44077400  0.41553600  0.36154700  1.0
  O  O11  1  0.84443500  0.23673400  0.55213200  1.0
  O  O12  1  0.64479300  0.82411200  0.96168400  1.0
  O  O13  1  0.35560300  0.18825900  0.03546100  1.0
  O  O14  1  0.15925100  0.79138100  0.43167500  1.0
  O  O15  1  0.74780900  0.98056200  0.24994100  1.0
  O  O16  1  0.53290000  0.56516500  0.65201300  1.0
  O  O17  1  0.96803100  0.36726100  0.84902900  1.0
  F  F18  1  0.26044600  0.00522300  0.75330600  1.0
