# generated using pymatgen
data_Li4V(TeO4)3
_symmetry_space_group_name_H-M   'P 1'
_cell_length_a   5.04803500
_cell_length_b   5.22390707
_cell_length_c   8.74833000
_cell_angle_alpha   90.00000000
_cell_angle_beta   90.00000000
_cell_angle_gamma   92.99368288
_symmetry_Int_Tables_number   1
_chemical_formula_structural   Li4V(TeO4)3
_chemical_formula_sum   'Li4 V1 Te3 O12'
_cell_volume   230.38270326
_cell_formula_units_Z   1
loop_
 _symmetry_equiv_pos_site_id
 _symmetry_equiv_pos_as_xyz
  1  'x, y, z'
loop_
 _atom_site_type_symbol
 _atom_site_label
 _atom_site_symmetry_multiplicity
 _atom_site_fract_x
 _atom_site_fract_y
 _atom_site_fract_z
 _atom_site_occupancy
  Li  Li0  1  0.00000000  0.00000000  0.70435100  1.0
  Li  Li1  1  0.50000000  1.00000000  0.85144600  1.0
  Li  Li2  1  0.00000000  0.50000000  0.29851700  1.0
  Li  Li3  1  0.50000000  0.50000000  0.18688000  1.0
  V  V4  1  0.00000000  0.00000000  0.10281600  1.0
  Te  Te5  1  0.50000000  0.00000000  0.39920200  1.0
  Te  Te6  1  0.00000000  0.50000000  0.92444500  1.0
  Te  Te7  1  0.50000000  0.50000000  0.60091300  1.0
  O  O8  1  0.73863300  0.85519900  0.24952400  1.0
  O  O9  1  0.71528600  0.85365900  0.56178600  1.0
  O  O10  1  0.79585500  0.81087400  0.93924700  1.0
  O  O11  1  0.30066700  0.66903000  0.41557000  1.0
  O  O12  1  0.19349000  0.68028400  0.09479500  1.0
  O  O13  1  0.22217100  0.67930300  0.77533100  1.0
  O  O14  1  0.77782900  0.32069700  0.77533100  1.0
  O  O15  1  0.80651000  0.31971600  0.09479500  1.0
  O  O16  1  0.69933300  0.33097000  0.41557000  1.0
  O  O17  1  0.20414500  0.18912600  0.93924700  1.0
  O  O18  1  0.28471400  0.14634100  0.56178600  1.0
  O  O19  1  0.26136700  0.14480100  0.24952400  1.0
