# generated using pymatgen
data_Li5AgF8
_symmetry_space_group_name_H-M   'P 1'
_cell_length_a   5.97218824
_cell_length_b   5.97218824
_cell_length_c   6.11142120
_cell_angle_alpha   60.75081502
_cell_angle_beta   60.75081502
_cell_angle_gamma   59.99999736
_symmetry_Int_Tables_number   1
_chemical_formula_structural   Li5AgF8
_chemical_formula_sum   'Li5 Ag1 F8'
_cell_volume   155.85857110
_cell_formula_units_Z   1
loop_
 _symmetry_equiv_pos_site_id
 _symmetry_equiv_pos_as_xyz
  1  'x, y, z'
loop_
 _atom_site_type_symbol
 _atom_site_label
 _atom_site_symmetry_multiplicity
 _atom_site_fract_x
 _atom_site_fract_y
 _atom_site_fract_z
 _atom_site_occupancy
  Li  Li0  1  0.14104200  0.14104200  0.57687400  1.0
  Li  Li1  1  0.50000000  1.00000000  0.00000000  1.0
  Li  Li2  1  0.00000000  0.50000000  0.00000000  1.0
  Li  Li3  1  0.85895800  0.85895800  0.42312600  1.0
  Li  Li4  1  0.50000000  0.50000000  0.00000000  1.0
  Ag  Ag5  1  0.50000000  0.50000000  0.50000000  1.0
  F  F6  1  0.25769900  0.74666800  0.24896500  1.0
  F  F7  1  0.26615200  0.26615200  0.20154400  1.0
  F  F8  1  0.74666800  0.74666800  0.24896500  1.0
  F  F9  1  0.74666800  0.25769900  0.24896500  1.0
  F  F10  1  0.25333200  0.74230100  0.75103500  1.0
  F  F11  1  0.25333200  0.25333200  0.75103500  1.0
  F  F12  1  0.73384800  0.73384800  0.79845600  1.0
  F  F13  1  0.74230100  0.25333200  0.75103500  1.0
