# generated using pymatgen
data_Li5Al(SiO4)2
_symmetry_space_group_name_H-M   'P 1'
_cell_length_a   5.16467285
_cell_length_b   5.16467285
_cell_length_c   6.34127673
_cell_angle_alpha   90.10317578
_cell_angle_beta   89.89682422
_cell_angle_gamma   89.54178632
_symmetry_Int_Tables_number   1
_chemical_formula_structural   Li5Al(SiO4)2
_chemical_formula_sum   'Li5 Al1 Si2 O8'
_cell_volume   169.14027476
_cell_formula_units_Z   1
loop_
 _symmetry_equiv_pos_site_id
 _symmetry_equiv_pos_as_xyz
  1  'x, y, z'
loop_
 _atom_site_type_symbol
 _atom_site_label
 _atom_site_symmetry_multiplicity
 _atom_site_fract_x
 _atom_site_fract_y
 _atom_site_fract_z
 _atom_site_occupancy
  Li  Li0  1  0.67384300  0.67384300  1.00000000  1.0
  Li  Li1  1  0.30647700  0.30647700  0.50000000  1.0
  Li  Li2  1  0.31544100  0.31544100  0.00000000  1.0
  Li  Li3  1  0.82069200  0.19981200  0.76036800  1.0
  Li  Li4  1  0.19981200  0.82069200  0.23963200  1.0
  Al  Al5  1  0.67671900  0.67671900  0.50000000  1.0
  Si  Si6  1  0.18121500  0.82944700  0.75180300  1.0
  Si  Si7  1  0.82944700  0.18121500  0.24819700  1.0
  O  O8  1  0.86089500  0.76670100  0.72313000  1.0
  O  O9  1  0.19789300  0.14268800  0.74754100  1.0
  O  O10  1  0.14268800  0.19789300  0.25245900  1.0
  O  O11  1  0.76670100  0.86089500  0.27687000  1.0
  O  O12  1  0.29247900  0.69537900  0.96367000  1.0
  O  O13  1  0.33471100  0.70561000  0.53810600  1.0
  O  O14  1  0.70561000  0.33471100  0.46189400  1.0
  O  O15  1  0.69537900  0.29247900  0.03633000  1.0
