# generated using pymatgen
data_Li5Fe3(SbO5)2
_symmetry_space_group_name_H-M   'P 1'
_cell_length_a   5.27287836
_cell_length_b   5.39057370
_cell_length_c   8.23803646
_cell_angle_alpha   108.45410185
_cell_angle_beta   108.12578734
_cell_angle_gamma   80.19409944
_symmetry_Int_Tables_number   1
_chemical_formula_structural   Li5Fe3(SbO5)2
_chemical_formula_sum   'Li5 Fe3 Sb2 O10'
_cell_volume   210.42221761
_cell_formula_units_Z   1
loop_
 _symmetry_equiv_pos_site_id
 _symmetry_equiv_pos_as_xyz
  1  'x, y, z'
loop_
 _atom_site_type_symbol
 _atom_site_label
 _atom_site_symmetry_multiplicity
 _atom_site_fract_x
 _atom_site_fract_y
 _atom_site_fract_z
 _atom_site_occupancy
  Li  Li0  1  0.51581900  0.24185600  0.40952600  1.0
  Li  Li1  1  0.49112700  0.40087800  0.79416700  1.0
  Li  Li2  1  0.00439400  0.50054700  0.50044500  1.0
  Li  Li3  1  0.50819500  0.58609600  0.20208100  1.0
  Li  Li4  1  0.48865000  0.76761500  0.58780800  1.0
  Fe  Fe5  1  0.49866100  0.99832000  0.99957400  1.0
  Fe  Fe6  1  0.99473700  0.69351300  0.89198800  1.0
  Fe  Fe7  1  0.00770100  0.30633500  0.10903500  1.0
  Sb  Sb8  1  0.99246300  0.10217000  0.70056400  1.0
  Sb  Sb9  1  0.00918600  0.90015100  0.29780900  1.0
  O  O10  1  0.76983500  0.06096900  0.85239300  1.0
  O  O11  1  0.23573400  0.32470300  0.92518400  1.0
  O  O12  1  0.22715400  0.15181000  0.55935600  1.0
  O  O13  1  0.75033500  0.23333500  0.24640800  1.0
  O  O14  1  0.76409700  0.43274200  0.66423900  1.0
  O  O15  1  0.24114400  0.54849000  0.33873000  1.0
  O  O16  1  0.23499500  0.78205600  0.74680800  1.0
  O  O17  1  0.76753500  0.87342100  0.47139700  1.0
  O  O18  1  0.75710400  0.66622200  0.06851900  1.0
  O  O19  1  0.24113400  0.92877200  0.13396800  1.0
