# generated using pymatgen
data_Li5Mn3O8
_symmetry_space_group_name_H-M   'P 1'
_cell_length_a   5.13338316
_cell_length_b   5.76540186
_cell_length_c   5.91816836
_cell_angle_alpha   119.14991201
_cell_angle_beta   108.42424077
_cell_angle_gamma   89.99982667
_symmetry_Int_Tables_number   1
_chemical_formula_structural   Li5Mn3O8
_chemical_formula_sum   'Li5 Mn3 O8'
_cell_volume   142.60287047
_cell_formula_units_Z   1
loop_
 _symmetry_equiv_pos_site_id
 _symmetry_equiv_pos_as_xyz
  1  'x, y, z'
loop_
 _atom_site_type_symbol
 _atom_site_label
 _atom_site_symmetry_multiplicity
 _atom_site_fract_x
 _atom_site_fract_y
 _atom_site_fract_z
 _atom_site_occupancy
  Li  Li0  1  0.49880000  0.74573100  0.99146200  1.0
  Li  Li1  1  0.50000200  0.26220600  0.49999900  1.0
  Li  Li2  1  0.50000100  0.73779400  0.49999900  1.0
  Li  Li3  1  0.50120200  0.25426900  0.00853600  1.0
  Li  Li4  1  0.00000200  0.50000000  0.49999900  1.0
  Mn  Mn5  1  0.99997400  0.99998400  0.99999100  1.0
  Mn  Mn6  1  0.00000700  0.00000200  0.49999900  1.0
  Mn  Mn7  1  0.00000400  0.50001500  0.00002300  1.0
  O  O8  1  0.23818300  0.85796100  0.21591800  1.0
  O  O9  1  0.21488200  0.36774700  0.75850000  1.0
  O  O10  1  0.21488200  0.89075400  0.75850100  1.0
  O  O11  1  0.22944500  0.36302600  0.22605000  1.0
  O  O12  1  0.77055800  0.63697500  0.77394700  1.0
  O  O13  1  0.78512000  0.10924400  0.24150000  1.0
  O  O14  1  0.78511900  0.63225300  0.24149700  1.0
  O  O15  1  0.76181900  0.14204000  0.78408000  1.0
