# generated using pymatgen
data_Li6Mn2OF11
_symmetry_space_group_name_H-M   'P 1'
_cell_length_a   5.07761340
_cell_length_b   5.52900363
_cell_length_c   8.80494450
_cell_angle_alpha   107.56957840
_cell_angle_beta   90.30173325
_cell_angle_gamma   116.94742507
_symmetry_Int_Tables_number   1
_chemical_formula_structural   Li6Mn2OF11
_chemical_formula_sum   'Li6 Mn2 O1 F11'
_cell_volume   207.11681964
_cell_formula_units_Z   1
loop_
 _symmetry_equiv_pos_site_id
 _symmetry_equiv_pos_as_xyz
  1  'x, y, z'
loop_
 _atom_site_type_symbol
 _atom_site_label
 _atom_site_symmetry_multiplicity
 _atom_site_fract_x
 _atom_site_fract_y
 _atom_site_fract_z
 _atom_site_occupancy
  Li  Li0  1  0.20310100  0.40865800  0.06366200  1.0
  Li  Li1  1  0.05518900  0.10167800  0.69430700  1.0
  Li  Li2  1  0.96980200  0.93051300  0.33050000  1.0
  Li  Li3  1  0.26117800  0.54694000  0.40296400  1.0
  Li  Li4  1  0.75806900  0.54798800  0.94122900  1.0
  Li  Li5  1  0.45723200  0.95692200  0.83228700  1.0
  Mn  Mn6  1  0.73768200  0.46953900  0.56777800  1.0
  Mn  Mn7  1  0.51740800  0.03914000  0.18046600  1.0
  O  O8  1  0.79009600  0.25211200  0.37989300  1.0
  F  F9  1  0.28897800  0.24621100  0.22256600  1.0
  F  F10  1  0.78185400  0.26400600  0.69025100  1.0
  F  F11  1  0.68678800  0.77448100  0.13757500  1.0
  F  F12  1  0.71201100  0.72348400  0.47378100  1.0
  F  F13  1  0.23669200  0.77237300  0.98306600  1.0
  F  F14  1  0.32086400  0.25889900  0.53346100  1.0
  F  F15  1  0.77654200  0.23899500  0.02472000  1.0
  F  F16  1  0.33232800  0.25585500  0.87405300  1.0
  F  F17  1  0.15419300  0.71726300  0.61483300  1.0
  F  F18  1  0.20835100  0.74450200  0.27851800  1.0
  F  F19  1  0.72471100  0.73560800  0.76483100  1.0
