# generated using pymatgen
data_Li7FeO6
_symmetry_space_group_name_H-M   'P 1'
_cell_length_a   5.54504545
_cell_length_b   5.55892300
_cell_length_c   5.64013693
_cell_angle_alpha   90.38729189
_cell_angle_beta   119.34357850
_cell_angle_gamma   119.63095074
_symmetry_Int_Tables_number   1
_chemical_formula_structural   Li7FeO6
_chemical_formula_sum   'Li7 Fe1 O6'
_cell_volume   124.41111752
_cell_formula_units_Z   1
loop_
 _symmetry_equiv_pos_site_id
 _symmetry_equiv_pos_as_xyz
  1  'x, y, z'
loop_
 _atom_site_type_symbol
 _atom_site_label
 _atom_site_symmetry_multiplicity
 _atom_site_fract_x
 _atom_site_fract_y
 _atom_site_fract_z
 _atom_site_occupancy
  Li  Li0  1  0.27426800  0.50493000  0.32748800  1.0
  Li  Li1  1  0.16684700  0.28275300  0.68444300  1.0
  Li  Li2  1  0.39516300  0.88286200  0.67331500  1.0
  Li  Li3  1  0.70222600  0.34673200  0.03790400  1.0
  Li  Li4  1  0.56026300  0.05556100  0.32274900  1.0
  Li  Li5  1  0.81776900  0.76432100  0.31885700  1.0
  Li  Li6  1  0.79354800  0.51492400  0.67410900  1.0
  Fe  Fe7  1  0.99870000  0.99930300  0.99705200  1.0
  O  O8  1  0.56209800  0.63771900  0.76242600  1.0
  O  O9  1  0.89229500  0.11988900  0.23982100  1.0
  O  O10  1  0.12212600  0.77077800  0.23481700  1.0
  O  O11  1  0.83326300  0.20004400  0.76224800  1.0
  O  O12  1  0.12046500  0.92263700  0.75695300  1.0
  O  O13  1  0.46677400  0.34907100  0.23253300  1.0
