# generated using pymatgen
data_LiAgO2
_symmetry_space_group_name_H-M   'P 1'
_cell_length_a   2.99773600
_cell_length_b   3.33838356
_cell_length_c   5.35553549
_cell_angle_alpha   80.75811961
_cell_angle_beta   73.74739478
_cell_angle_gamma   63.32172883
_symmetry_Int_Tables_number   1
_chemical_formula_structural   LiAgO2
_chemical_formula_sum   'Li1 Ag1 O2'
_cell_volume   45.93828009
_cell_formula_units_Z   1
loop_
 _symmetry_equiv_pos_site_id
 _symmetry_equiv_pos_as_xyz
  1  'x, y, z'
loop_
 _atom_site_type_symbol
 _atom_site_label
 _atom_site_symmetry_multiplicity
 _atom_site_fract_x
 _atom_site_fract_y
 _atom_site_fract_z
 _atom_site_occupancy
  Li  Li0  1  0.50000000  0.50000000  0.50000000  1.0
  Ag  Ag1  1  0.50000000  0.00000000  1.00000000  1.0
  O  O2  1  0.89874400  0.93088900  0.27162300  1.0
  O  O3  1  0.10125600  0.06911100  0.72837700  1.0
