# generated using pymatgen
data_LiAlH4
_symmetry_space_group_name_H-M   'P 1'
_cell_length_a   4.51862271
_cell_length_b   4.60045545
_cell_length_c   6.11718224
_cell_angle_alpha   111.75028920
_cell_angle_beta   111.33217595
_cell_angle_gamma   90.84785289
_symmetry_Int_Tables_number   1
_chemical_formula_structural   LiAlH4
_chemical_formula_sum   'Li2 Al2 H8'
_cell_volume   108.36014480
_cell_formula_units_Z   2
loop_
 _symmetry_equiv_pos_site_id
 _symmetry_equiv_pos_as_xyz
  1  'x, y, z'
loop_
 _atom_site_type_symbol
 _atom_site_label
 _atom_site_symmetry_multiplicity
 _atom_site_fract_x
 _atom_site_fract_y
 _atom_site_fract_z
 _atom_site_occupancy
  Li  Li0  1  0.11134700  0.36134700  0.72269400  1.0
  Li  Li1  1  0.88865300  0.63865300  0.27730600  1.0
  Al  Al2  1  0.62650500  0.87650500  0.75301000  1.0
  Al  Al3  1  0.37349500  0.12349500  0.24699000  1.0
  H  H4  1  0.79610000  0.62129800  0.58523300  1.0
  H  H5  1  0.20390000  0.37870200  0.41476700  1.0
  H  H6  1  0.71086700  0.03606500  0.41476700  1.0
  H  H7  1  0.28913300  0.96393500  0.58523300  1.0
  H  H8  1  0.10928400  0.79130400  0.08998700  1.0
  H  H9  1  0.89071600  0.20869600  0.91001300  1.0
  H  H10  1  0.51929700  0.70131700  0.91001300  1.0
  H  H11  1  0.48070300  0.29868300  0.08998700  1.0
