# generated using pymatgen
data_LiBi(BO3)2
_symmetry_space_group_name_H-M   'P 1'
_cell_length_a   4.87850130
_cell_length_b   4.87850130
_cell_length_c   5.93578594
_cell_angle_alpha   65.73611283
_cell_angle_beta   65.73611283
_cell_angle_gamma   60.00000955
_symmetry_Int_Tables_number   1
_chemical_formula_structural   LiBi(BO3)2
_chemical_formula_sum   'Li1 Bi1 B2 O6'
_cell_volume   107.69292856
_cell_formula_units_Z   1
loop_
 _symmetry_equiv_pos_site_id
 _symmetry_equiv_pos_as_xyz
  1  'x, y, z'
loop_
 _atom_site_type_symbol
 _atom_site_label
 _atom_site_symmetry_multiplicity
 _atom_site_fract_x
 _atom_site_fract_y
 _atom_site_fract_z
 _atom_site_occupancy
  Li  Li0  1  0.50000000  0.50000000  0.50000000  1.0
  Bi  Bi1  1  0.00000000  0.00000000  0.00000000  1.0
  B  B2  1  0.25453200  0.25453200  0.23640400  1.0
  B  B3  1  0.74546800  0.74546800  0.76359600  1.0
  O  O4  1  0.03129100  0.74605800  0.75877200  1.0
  O  O5  1  0.53612100  0.96870900  0.24122800  1.0
  O  O6  1  0.25394200  0.53612100  0.24122800  1.0
  O  O7  1  0.74605800  0.46387900  0.75877200  1.0
  O  O8  1  0.46387900  0.03129100  0.75877200  1.0
  O  O9  1  0.96870900  0.25394200  0.24122800  1.0
