# generated using pymatgen
data_LiBiS2
_symmetry_space_group_name_H-M   'P 1'
_cell_length_a   5.57891600
_cell_length_b   5.57891600
_cell_length_c   6.88097114
_cell_angle_alpha   113.91539678
_cell_angle_beta   113.91539679
_cell_angle_gamma   89.99999999
_symmetry_Int_Tables_number   1
_chemical_formula_structural   LiBiS2
_chemical_formula_sum   'Li2 Bi2 S4'
_cell_volume   175.47487165
_cell_formula_units_Z   2
loop_
 _symmetry_equiv_pos_site_id
 _symmetry_equiv_pos_as_xyz
  1  'x, y, z'
loop_
 _atom_site_type_symbol
 _atom_site_label
 _atom_site_symmetry_multiplicity
 _atom_site_fract_x
 _atom_site_fract_y
 _atom_site_fract_z
 _atom_site_occupancy
  Li  Li0  1  0.00000000  0.00000000  0.00000000  1.0
  Li  Li1  1  0.75000000  0.25000000  0.50000000  1.0
  Bi  Bi2  1  0.25000000  0.75000000  0.50000000  1.0
  Bi  Bi3  1  0.50000000  0.50000000  1.00000000  1.0
  S  S4  1  0.99930900  0.49930900  0.99861800  1.0
  S  S5  1  0.75069100  0.75069100  0.50138200  1.0
  S  S6  1  0.50069100  0.00069100  0.00138200  1.0
  S  S7  1  0.24930900  0.24930900  0.49861800  1.0
