# generated using pymatgen
data_LiCe2HO3
_symmetry_space_group_name_H-M   'P 1'
_cell_length_a   3.49950600
_cell_length_b   3.75013000
_cell_length_c   6.78071217
_cell_angle_alpha   106.05316602
_cell_angle_beta   104.95430194
_cell_angle_gamma   89.99999999
_symmetry_Int_Tables_number   1
_chemical_formula_structural   LiCe2HO3
_chemical_formula_sum   'Li1 Ce2 H1 O3'
_cell_volume   82.37666868
_cell_formula_units_Z   1
loop_
 _symmetry_equiv_pos_site_id
 _symmetry_equiv_pos_as_xyz
  1  'x, y, z'
loop_
 _atom_site_type_symbol
 _atom_site_label
 _atom_site_symmetry_multiplicity
 _atom_site_fract_x
 _atom_site_fract_y
 _atom_site_fract_z
 _atom_site_occupancy
  Li  Li0  1  0.00000000  0.00000000  0.00000000  1.0
  Ce  Ce1  1  0.63821500  0.63821500  0.27643000  1.0
  Ce  Ce2  1  0.36178500  0.36178500  0.72357000  1.0
  H  H3  1  0.50000000  0.00000000  0.00000000  1.0
  O  O4  1  1.00000000  0.50000000  1.00000000  1.0
  O  O5  1  0.17693800  0.17693800  0.35387600  1.0
  O  O6  1  0.82306200  0.82306200  0.64612400  1.0
