# generated using pymatgen
data_LiCo3NiO8
_symmetry_space_group_name_H-M   'P 1'
_cell_length_a   5.67832800
_cell_length_b   5.67832861
_cell_length_c   5.98511378
_cell_angle_alpha   61.68160268
_cell_angle_beta   61.68160061
_cell_angle_gamma   60.00000354
_symmetry_Int_Tables_number   1
_chemical_formula_structural   LiCo3NiO8
_chemical_formula_sum   'Li1 Co3 Ni1 O8'
_cell_volume   139.82395676
_cell_formula_units_Z   1
loop_
 _symmetry_equiv_pos_site_id
 _symmetry_equiv_pos_as_xyz
  1  'x, y, z'
loop_
 _atom_site_type_symbol
 _atom_site_label
 _atom_site_symmetry_multiplicity
 _atom_site_fract_x
 _atom_site_fract_y
 _atom_site_fract_z
 _atom_site_occupancy
  Li  Li0  1  0.50000000  0.50000000  0.50000000  1.0
  Co  Co1  1  0.50000000  0.50000000  1.00000000  1.0
  Co  Co2  1  0.00000000  0.50000000  1.00000000  1.0
  Co  Co3  1  0.50000000  1.00000000  0.00000000  1.0
  Ni  Ni4  1  0.00000000  0.00000000  0.00000000  1.0
  O  O5  1  0.23966200  0.23966200  0.80471100  1.0
  O  O6  1  0.72920700  0.72920800  0.81237800  1.0
  O  O7  1  0.23966200  0.71596500  0.80471100  1.0
  O  O8  1  0.71596500  0.23966200  0.80471100  1.0
  O  O9  1  0.28403500  0.76033800  0.19528900  1.0
  O  O10  1  0.76033800  0.28403500  0.19528900  1.0
  O  O11  1  0.27079300  0.27079200  0.18762200  1.0
  O  O12  1  0.76033800  0.76033800  0.19528900  1.0
