# generated using pymatgen
data_LiCoSnO4
_symmetry_space_group_name_H-M   'P 1'
_cell_length_a   6.01856600
_cell_length_b   6.14553431
_cell_length_c   6.14553431
_cell_angle_alpha   61.41561375
_cell_angle_beta   60.68111447
_cell_angle_gamma   60.68111447
_symmetry_Int_Tables_number   1
_chemical_formula_structural   LiCoSnO4
_chemical_formula_sum   'Li2 Co2 Sn2 O8'
_cell_volume   164.06657128
_cell_formula_units_Z   2
loop_
 _symmetry_equiv_pos_site_id
 _symmetry_equiv_pos_as_xyz
  1  'x, y, z'
loop_
 _atom_site_type_symbol
 _atom_site_label
 _atom_site_symmetry_multiplicity
 _atom_site_fract_x
 _atom_site_fract_y
 _atom_site_fract_z
 _atom_site_occupancy
  Li  Li0  1  0.87568400  0.37431600  0.87431600  1.0
  Li  Li1  1  0.12431600  0.62568400  0.12568400  1.0
  Co  Co2  1  0.00000000  1.00000000  0.50000000  1.0
  Co  Co3  1  0.50000000  0.00000000  0.50000000  1.0
  Sn  Sn4  1  0.50000000  0.00000000  1.00000000  1.0
  Sn  Sn5  1  0.50000000  0.50000000  0.50000000  1.0
  O  O6  1  0.25990400  0.20754600  0.27264600  1.0
  O  O7  1  0.25990300  0.77264600  0.70754700  1.0
  O  O8  1  0.72143300  0.76018800  0.26018800  1.0
  O  O9  1  0.25819100  0.76018800  0.26018800  1.0
  O  O10  1  0.74180900  0.23981200  0.73981200  1.0
  O  O11  1  0.27856700  0.23981200  0.73981200  1.0
  O  O12  1  0.74009700  0.22735400  0.29245300  1.0
  O  O13  1  0.74009600  0.79245400  0.72735400  1.0
