# generated using pymatgen
data_LiCrO2
_symmetry_space_group_name_H-M   'P 1'
_cell_length_a   2.92934148
_cell_length_b   2.92934085
_cell_length_c   9.97726717
_cell_angle_alpha   90.00074153
_cell_angle_beta   90.00019527
_cell_angle_gamma   119.45448874
_symmetry_Int_Tables_number   1
_chemical_formula_structural   LiCrO2
_chemical_formula_sum   'Li2 Cr2 O4'
_cell_volume   74.54925029
_cell_formula_units_Z   2
loop_
 _symmetry_equiv_pos_site_id
 _symmetry_equiv_pos_as_xyz
  1  'x, y, z'
loop_
 _atom_site_type_symbol
 _atom_site_label
 _atom_site_symmetry_multiplicity
 _atom_site_fract_x
 _atom_site_fract_y
 _atom_site_fract_z
 _atom_site_occupancy
  Cr  Cr4  1  0.66689700  0.33301100  0.49953900  1.0
  Cr  Cr5  1  0.33300150  0.66687850  0.99955150  1.0
  Li  Li0  1  0.66650200  0.33344000  0.23987300  1.0
  Li  Li2  1  0.33342650  0.66649050  0.73987350  1.0
  O  O8  1  0.00194550  0.99798150  0.61257550  1.0
  O  O10  1  0.99796750  0.00193850  0.11258350  1.0
  O  O12  1  0.66826900  0.33161600  0.88844900  1.0
  O  O14  1  0.33162350  0.66827950  0.38844000  1.0
