# generated using pymatgen
data_LiErS2
_symmetry_space_group_name_H-M   'P 1'
_cell_length_a   5.39808200
_cell_length_b   5.39808200
_cell_length_c   6.69535714
_cell_angle_alpha   113.77345091
_cell_angle_beta   113.77345092
_cell_angle_gamma   89.99999999
_symmetry_Int_Tables_number   1
_chemical_formula_structural   LiErS2
_chemical_formula_sum   'Li2 Er2 S4'
_cell_volume   160.28771259
_cell_formula_units_Z   2
loop_
 _symmetry_equiv_pos_site_id
 _symmetry_equiv_pos_as_xyz
  1  'x, y, z'
loop_
 _atom_site_type_symbol
 _atom_site_label
 _atom_site_symmetry_multiplicity
 _atom_site_fract_x
 _atom_site_fract_y
 _atom_site_fract_z
 _atom_site_occupancy
  Li  Li0  1  0.00000000  0.00000000  0.00000000  1.0
  Li  Li1  1  0.75000000  0.25000000  0.50000000  1.0
  Er  Er2  1  0.25000000  0.75000000  0.50000000  1.0
  Er  Er3  1  0.50000000  0.50000000  1.00000000  1.0
  S  S4  1  0.74550800  0.74550800  0.49101600  1.0
  S  S5  1  0.25449200  0.25449200  0.50898400  1.0
  S  S6  1  0.00449200  0.50449200  0.00898400  1.0
  S  S7  1  0.49550800  0.99550800  0.99101600  1.0
