# generated using pymatgen
data_LiFe(CoO3)2
_symmetry_space_group_name_H-M   'P 1'
_cell_length_a   2.88058675
_cell_length_b   5.94189266
_cell_length_c   6.54234775
_cell_angle_alpha   104.92589906
_cell_angle_beta   102.71000164
_cell_angle_gamma   90.01218509
_symmetry_Int_Tables_number   1
_chemical_formula_structural   LiFe(CoO3)2
_chemical_formula_sum   'Li1 Fe1 Co2 O6'
_cell_volume   105.35777457
_cell_formula_units_Z   1
loop_
 _symmetry_equiv_pos_site_id
 _symmetry_equiv_pos_as_xyz
  1  'x, y, z'
loop_
 _atom_site_type_symbol
 _atom_site_label
 _atom_site_symmetry_multiplicity
 _atom_site_fract_x
 _atom_site_fract_y
 _atom_site_fract_z
 _atom_site_occupancy
  Li  Li0  1  0.33337200  0.16689500  0.66674100  1.0
  Fe  Fe1  1  0.33314500  0.66685200  0.66631600  1.0
  Co  Co2  1  0.66194000  0.33740000  0.32388600  1.0
  Co  Co3  1  0.00476700  0.99561800  0.00958800  1.0
  O  O4  1  0.49613400  0.78938600  0.99227800  1.0
  O  O5  1  0.81573600  0.41865200  0.63172300  1.0
  O  O6  1  0.85077200  0.91499700  0.70129400  1.0
  O  O7  1  0.15637600  0.12345400  0.31296600  1.0
  O  O8  1  0.17056600  0.54373800  0.34097200  1.0
  O  O9  1  0.51052600  0.20967600  0.02090200  1.0
