# generated using pymatgen
data_LiFeCoO4
_symmetry_space_group_name_H-M   'P 1'
_cell_length_a   5.78379800
_cell_length_b   5.84719739
_cell_length_c   5.84719739
_cell_angle_alpha   61.45447550
_cell_angle_beta   60.35803000
_cell_angle_gamma   60.35803000
_symmetry_Int_Tables_number   1
_chemical_formula_structural   LiFeCoO4
_chemical_formula_sum   'Li2 Fe2 Co2 O8'
_cell_volume   142.07663785
_cell_formula_units_Z   2
loop_
 _symmetry_equiv_pos_site_id
 _symmetry_equiv_pos_as_xyz
  1  'x, y, z'
loop_
 _atom_site_type_symbol
 _atom_site_label
 _atom_site_symmetry_multiplicity
 _atom_site_fract_x
 _atom_site_fract_y
 _atom_site_fract_z
 _atom_site_occupancy
  Li  Li0  1  0.50000000  1.00000000  1.00000000  1.0
  Li  Li1  1  0.50000000  0.50000000  0.50000000  1.0
  Fe  Fe2  1  0.00000000  0.00000000  0.00000000  1.0
  Fe  Fe3  1  0.00000000  0.50000000  0.50000000  1.0
  Co  Co4  1  0.50000000  0.50000000  0.00000000  1.0
  Co  Co5  1  0.00000000  0.50000000  1.00000000  1.0
  O  O6  1  0.75296100  0.70581000  0.78826800  1.0
  O  O7  1  0.74064100  0.27081000  0.77080900  1.0
  O  O8  1  0.24703900  0.71173200  0.79419000  1.0
  O  O9  1  0.21774100  0.27080900  0.77080900  1.0
  O  O10  1  0.78225900  0.72919100  0.22919100  1.0
  O  O11  1  0.75296100  0.28826800  0.20581000  1.0
  O  O12  1  0.25935900  0.72919000  0.22919100  1.0
  O  O13  1  0.24703900  0.29419000  0.21173200  1.0
