# generated using pymatgen
data_LiFeF3
_symmetry_space_group_name_H-M   'P 1'
_cell_length_a   3.22343350
_cell_length_b   4.92742600
_cell_length_c   7.37394400
_cell_angle_alpha   90.00000000
_cell_angle_beta   90.00000000
_cell_angle_gamma   90.00000000
_symmetry_Int_Tables_number   1
_chemical_formula_structural   LiFeF3
_chemical_formula_sum   'Li2 Fe2 F6'
_cell_volume   117.12204883
_cell_formula_units_Z   2
loop_
 _symmetry_equiv_pos_site_id
 _symmetry_equiv_pos_as_xyz
  1  'x, y, z'
loop_
 _atom_site_type_symbol
 _atom_site_label
 _atom_site_symmetry_multiplicity
 _atom_site_fract_x
 _atom_site_fract_y
 _atom_site_fract_z
 _atom_site_occupancy
  F  F8  1  0.50000000  0.75249800  0.56693700  1.0
  F  F9  1  0.50000000  0.75249800  0.93306300  1.0
  F  F10  1  0.00000000  0.76756300  0.25000000  1.0
  F  F14  1  0.50000000  0.24750200  0.43306300  1.0
  F  F15  1  0.50000000  0.24750200  0.06693700  1.0
  F  F16  1  0.00000000  0.23243700  0.75000000  1.0
  Fe  Fe4  1  0.00000000  0.00000000  0.00000000  1.0
  Fe  Fe5  1  0.00000000  0.00000000  0.50000000  1.0
  Li  Li0  1  0.50000000  0.53240200  0.25000000  1.0
  Li  Li1  1  0.50000000  0.46759800  0.75000000  1.0
