# generated using pymatgen
data_LiFeCuO4
_symmetry_space_group_name_H-M   'P 1'
_cell_length_a   5.54230992
_cell_length_b   5.64619500
_cell_length_c   6.26406814
_cell_angle_alpha   116.78587071
_cell_angle_beta   116.25609194
_cell_angle_gamma   90.00005516
_symmetry_Int_Tables_number   1
_chemical_formula_structural   LiFeCuO4
_chemical_formula_sum   'Li2 Fe2 Cu2 O8'
_cell_volume   151.98965757
_cell_formula_units_Z   2
loop_
 _symmetry_equiv_pos_site_id
 _symmetry_equiv_pos_as_xyz
  1  'x, y, z'
loop_
 _atom_site_type_symbol
 _atom_site_label
 _atom_site_symmetry_multiplicity
 _atom_site_fract_x
 _atom_site_fract_y
 _atom_site_fract_z
 _atom_site_occupancy
  Li  Li0  1  0.85476500  0.60479200  0.70953100  1.0
  Li  Li1  1  0.14523300  0.39520700  0.29046700  1.0
  Fe  Fe2  1  0.50002700  0.00000600  0.00000800  1.0
  Fe  Fe3  1  0.50000600  0.50000000  0.00001600  1.0
  Cu  Cu4  1  0.99999600  0.00000500  0.50000700  1.0
  Cu  Cu5  1  0.49998700  0.99999700  0.49998600  1.0
  O  O6  1  0.72383800  0.19194100  0.44768100  1.0
  O  O7  1  0.71329000  0.73786000  0.97571700  1.0
  O  O8  1  0.26242400  0.73786100  0.97571600  1.0
  O  O9  1  0.72384000  0.75574000  0.44767800  1.0
  O  O10  1  0.27615600  0.24425700  0.55231500  1.0
  O  O11  1  0.28670400  0.26214100  0.02428300  1.0
  O  O12  1  0.73757700  0.26214100  0.02428000  1.0
  O  O13  1  0.27615900  0.80805600  0.55231800  1.0
