# generated using pymatgen
data_LiGaI3
_symmetry_space_group_name_H-M   'P 1'
_cell_length_a   7.28492700
_cell_length_b   8.61615476
_cell_length_c   11.57686900
_cell_angle_alpha   90.00000000
_cell_angle_beta   90.00000000
_cell_angle_gamma   92.22547909
_symmetry_Int_Tables_number   1
_chemical_formula_structural   LiGaI3
_chemical_formula_sum   'Li4 Ga4 I12'
_cell_volume   726.10950620
_cell_formula_units_Z   4
loop_
 _symmetry_equiv_pos_site_id
 _symmetry_equiv_pos_as_xyz
  1  'x, y, z'
loop_
 _atom_site_type_symbol
 _atom_site_label
 _atom_site_symmetry_multiplicity
 _atom_site_fract_x
 _atom_site_fract_y
 _atom_site_fract_z
 _atom_site_occupancy
  Li  Li0  1  0.00000000  0.50000000  0.50000000  1.0
  Li  Li1  1  0.50000000  0.00000000  0.50000000  1.0
  Li  Li2  1  0.00000000  0.50000000  0.00000000  1.0
  Li  Li3  1  0.50000000  0.00000000  1.00000000  1.0
  Ga  Ga4  1  0.96625800  0.97010900  0.75000000  1.0
  Ga  Ga5  1  0.13320900  0.75889800  0.25000000  1.0
  Ga  Ga6  1  0.03374200  0.02989100  0.25000000  1.0
  Ga  Ga7  1  0.86679100  0.24110200  0.75000000  1.0
  I  I8  1  0.67545600  0.06582200  0.25000000  1.0
  I  I9  1  0.33493500  0.68286000  0.43030200  1.0
  I  I10  1  0.66506500  0.31714000  0.93030200  1.0
  I  I11  1  0.66506500  0.31714000  0.56969800  1.0
  I  I12  1  0.82199100  0.81637700  0.93007800  1.0
  I  I13  1  0.17800900  0.18362300  0.43007800  1.0
  I  I14  1  0.17800900  0.18362300  0.06992200  1.0
  I  I15  1  0.82199100  0.81637700  0.56992200  1.0
  I  I16  1  0.32454400  0.93417800  0.75000000  1.0
  I  I17  1  0.86277200  0.54622300  0.25000000  1.0
  I  I18  1  0.13722800  0.45377700  0.75000000  1.0
  I  I19  1  0.33493500  0.68286000  0.06969800  1.0
