# generated using pymatgen
data_LiH3O2
_symmetry_space_group_name_H-M   'P 1'
_cell_length_a   3.24693557
_cell_length_b   5.61631590
_cell_length_c   5.61631590
_cell_angle_alpha   95.94515596
_cell_angle_beta   103.97204688
_cell_angle_gamma   103.97204688
_symmetry_Int_Tables_number   1
_chemical_formula_structural   LiH3O2
_chemical_formula_sum   'Li2 H6 O4'
_cell_volume   95.01180645
_cell_formula_units_Z   2
loop_
 _symmetry_equiv_pos_site_id
 _symmetry_equiv_pos_as_xyz
  1  'x, y, z'
loop_
 _atom_site_type_symbol
 _atom_site_label
 _atom_site_symmetry_multiplicity
 _atom_site_fract_x
 _atom_site_fract_y
 _atom_site_fract_z
 _atom_site_occupancy
  Li  Li0  1  0.50000000  0.65412400  0.34587600  1.0
  Li  Li1  1  0.50000000  0.34587600  0.65412400  1.0
  H  H2  1  0.86898300  0.75509000  0.01874400  1.0
  H  H3  1  0.13101700  0.98125600  0.24491000  1.0
  H  H4  1  0.13101700  0.24491000  0.98125600  1.0
  H  H5  1  0.34859700  0.73720700  0.73720700  1.0
  H  H6  1  0.65140300  0.26279300  0.26279300  1.0
  H  H7  1  0.86898300  0.01874400  0.75509000  1.0
  O  O8  1  0.62958800  0.71704300  0.71704300  1.0
  O  O9  1  0.37041200  0.28295700  0.28295700  1.0
  O  O10  1  1.00000000  0.20719600  0.79280400  1.0
  O  O11  1  1.00000000  0.79280400  0.20719600  1.0
