# generated using pymatgen
data_LiMn2N3
_symmetry_space_group_name_H-M   'P 1'
_cell_length_a   4.95189200
_cell_length_b   5.46405450
_cell_length_c   5.46405454
_cell_angle_alpha   60.26076009
_cell_angle_beta   90.00000000
_cell_angle_gamma   90.00000000
_symmetry_Int_Tables_number   1
_chemical_formula_structural   LiMn2N3
_chemical_formula_sum   'Li2 Mn4 N6'
_cell_volume   128.37102416
_cell_formula_units_Z   2
loop_
 _symmetry_equiv_pos_site_id
 _symmetry_equiv_pos_as_xyz
  1  'x, y, z'
loop_
 _atom_site_type_symbol
 _atom_site_label
 _atom_site_symmetry_multiplicity
 _atom_site_fract_x
 _atom_site_fract_y
 _atom_site_fract_z
 _atom_site_occupancy
  Li  Li0  1  0.53887200  0.33443600  0.66556400  1.0
  Li  Li1  1  0.03887200  0.66556400  0.33443600  1.0
  Mn  Mn2  1  0.51039400  0.66929800  0.99259400  1.0
  Mn  Mn3  1  0.51039400  0.00740600  0.33070300  1.0
  Mn  Mn4  1  0.01039400  0.33070200  0.00740700  1.0
  Mn  Mn5  1  0.01039400  0.99259400  0.66929800  1.0
  N  N6  1  0.14403400  0.66258300  0.95681000  1.0
  N  N7  1  0.14403400  0.04319100  0.33741600  1.0
  N  N8  1  0.64403400  0.33741700  0.04319000  1.0
  N  N9  1  0.64403400  0.95680900  0.66258400  1.0
  N  N10  1  0.08027300  0.28072200  0.71927800  1.0
  N  N11  1  0.58027300  0.71927800  0.28072200  1.0
