# generated using pymatgen
data_LiMn2O4
_symmetry_space_group_name_H-M   'P 1'
_cell_length_a   5.89500441
_cell_length_b   5.89500441
_cell_length_c   5.93775421
_cell_angle_alpha   60.23788015
_cell_angle_beta   60.23788015
_cell_angle_gamma   59.99999543
_symmetry_Int_Tables_number   1
_chemical_formula_structural   LiMn2O4
_chemical_formula_sum   'Li2 Mn4 O8'
_cell_volume   146.42919691
_cell_formula_units_Z   2
loop_
 _symmetry_equiv_pos_site_id
 _symmetry_equiv_pos_as_xyz
  1  'x, y, z'
loop_
 _atom_site_type_symbol
 _atom_site_label
 _atom_site_symmetry_multiplicity
 _atom_site_fract_x
 _atom_site_fract_y
 _atom_site_fract_z
 _atom_site_occupancy
  Li  Li0  1  0.88342300  0.88342300  0.34973100  1.0
  Li  Li1  1  0.50073200  0.50073200  0.49780400  1.0
  Mn  Mn2  1  0.99421100  0.50100100  0.00378700  1.0
  Mn  Mn3  1  0.50100100  0.99421100  0.00378700  1.0
  Mn  Mn4  1  0.50100100  0.50100100  0.00378700  1.0
  Mn  Mn5  1  0.11863600  0.11863600  0.64409200  1.0
  O  O6  1  0.73734700  0.73734700  0.78795900  1.0
  O  O7  1  0.74861700  0.74861700  0.21153400  1.0
  O  O8  1  0.74861700  0.29123200  0.21153400  1.0
  O  O9  1  0.29123200  0.74861700  0.21153400  1.0
  O  O10  1  0.70453500  0.25479100  0.78588300  1.0
  O  O11  1  0.25479100  0.70453500  0.78588300  1.0
  O  O12  1  0.25479100  0.25479100  0.78588300  1.0
  O  O13  1  0.26106600  0.26106600  0.21680200  1.0
