# generated using pymatgen
data_LiMn2O4
_symmetry_space_group_name_H-M   'P 1'
_cell_length_a   2.95583918
_cell_length_b   5.13003831
_cell_length_c   5.20771099
_cell_angle_alpha   108.34193802
_cell_angle_beta   90.37000340
_cell_angle_gamma   93.52767855
_symmetry_Int_Tables_number   1
_chemical_formula_structural   LiMn2O4
_chemical_formula_sum   'Li1 Mn2 O4'
_cell_volume   74.78575201
_cell_formula_units_Z   1
loop_
 _symmetry_equiv_pos_site_id
 _symmetry_equiv_pos_as_xyz
  1  'x, y, z'
loop_
 _atom_site_type_symbol
 _atom_site_label
 _atom_site_symmetry_multiplicity
 _atom_site_fract_x
 _atom_site_fract_y
 _atom_site_fract_z
 _atom_site_occupancy
  Li  Li0  1  0.50000050  0.99999950  0.50000050  1.0
  Mn  Mn2  1  0.00000100  0.00000100  0.99999850  1.0
  Mn  Mn3  1  0.49999950  0.50000050  0.00000150  1.0
  O  O6  1  0.03916400  0.23818100  0.78109300  1.0
  O  O8  1  0.96083550  0.76181850  0.21890700  1.0
  O  O10  1  0.52343000  0.22048700  0.20034800  1.0
  O  O12  1  0.47656950  0.77951250  0.79965200  1.0
