# generated using pymatgen
data_LiMnO2
_symmetry_space_group_name_H-M   'P 1'
_cell_length_a   2.93893625
_cell_length_b   2.93913776
_cell_length_c   10.14702402
_cell_angle_alpha   94.40494761
_cell_angle_beta   94.40292706
_cell_angle_gamma   115.60657457
_symmetry_Int_Tables_number   1
_chemical_formula_structural   LiMnO2
_chemical_formula_sum   'Li2 Mn2 O4'
_cell_volume   78.21561579
_cell_formula_units_Z   2
loop_
 _symmetry_equiv_pos_site_id
 _symmetry_equiv_pos_as_xyz
  1  'x, y, z'
loop_
 _atom_site_type_symbol
 _atom_site_label
 _atom_site_symmetry_multiplicity
 _atom_site_fract_x
 _atom_site_fract_y
 _atom_site_fract_z
 _atom_site_occupancy
  Li  Li0  1  0.22148950  0.52753950  0.75783350  1.0
  Li  Li2  1  0.02749800  0.72144000  0.25783850  1.0
  Mn  Mn4  1  0.75487750  0.16530650  0.50094200  1.0
  Mn  Mn5  1  0.66518100  0.25479700  0.00105650  1.0
  O  O8  1  0.46766600  0.69372300  0.11330600  1.0
  O  O10  1  0.19373350  0.96766050  0.61317750  1.0
  O  O12  1  0.86637650  0.82093050  0.88692400  1.0
  O  O14  1  0.32095850  0.36638050  0.38680000  1.0
