# generated using pymatgen
data_LiNbFeO4
_symmetry_space_group_name_H-M   'P 1'
_cell_length_a   6.19795425
_cell_length_b   6.20553841
_cell_length_c   6.23519837
_cell_angle_alpha   119.82555859
_cell_angle_beta   119.77423554
_cell_angle_gamma   90.03002229
_symmetry_Int_Tables_number   1
_chemical_formula_structural   LiNbFeO4
_chemical_formula_sum   'Li2 Nb2 Fe2 O8'
_cell_volume   170.55241981
_cell_formula_units_Z   2
loop_
 _symmetry_equiv_pos_site_id
 _symmetry_equiv_pos_as_xyz
  1  'x, y, z'
loop_
 _atom_site_type_symbol
 _atom_site_label
 _atom_site_symmetry_multiplicity
 _atom_site_fract_x
 _atom_site_fract_y
 _atom_site_fract_z
 _atom_site_occupancy
  Li  Li0  1  0.10719600  0.85725200  0.71450500  1.0
  Li  Li1  1  0.89280400  0.14275000  0.28549600  1.0
  Nb  Nb2  1  0.00000200  0.50000300  0.00000400  1.0
  Nb  Nb3  1  0.50000200  0.50000300  0.00000300  1.0
  Fe  Fe4  1  0.50000400  0.50000000  0.49998200  1.0
  Fe  Fe5  1  0.49999100  0.99998600  0.50000200  1.0
  O  O6  1  0.24468300  0.72441200  0.44836400  1.0
  O  O7  1  0.70393500  0.72389000  0.44823000  1.0
  O  O8  1  0.29606300  0.27610900  0.55177200  1.0
  O  O9  1  0.75531900  0.27559100  0.55163800  1.0
  O  O10  1  0.24489900  0.71242300  0.98985300  1.0
  O  O11  1  0.24482100  0.27743100  0.98985200  1.0
  O  O12  1  0.75510200  0.28758000  0.01014900  1.0
  O  O13  1  0.75518000  0.72257100  0.01014900  1.0
