# generated using pymatgen
data_LiNiO2
_symmetry_space_group_name_H-M   'P 1'
_cell_length_a   2.80334762
_cell_length_b   2.94321230
_cell_length_c   5.00825340
_cell_angle_alpha   76.18630655
_cell_angle_beta   73.79088811
_cell_angle_gamma   61.56920305
_symmetry_Int_Tables_number   1
_chemical_formula_structural   LiNiO2
_chemical_formula_sum   'Li1 Ni1 O2'
_cell_volume   34.61877187
_cell_formula_units_Z   1
loop_
 _symmetry_equiv_pos_site_id
 _symmetry_equiv_pos_as_xyz
  1  'x, y, z'
loop_
 _atom_site_type_symbol
 _atom_site_label
 _atom_site_symmetry_multiplicity
 _atom_site_fract_x
 _atom_site_fract_y
 _atom_site_fract_z
 _atom_site_occupancy
  Li  Li0  1  0.49999850  0.49999200  0.50000900  1.0
  Ni  Ni2  1  0.00000400  0.99999800  0.99999700  1.0
  O  O4  1  0.27364650  0.22769000  0.22557900  1.0
  O  O6  1  0.72635050  0.77231950  0.77441500  1.0
