# generated using pymatgen
data_LiNiPO4
_symmetry_space_group_name_H-M   'P 1'
_cell_length_a   4.84399400
_cell_length_b   4.84405090
_cell_length_c   8.32639159
_cell_angle_alpha   73.09128820
_cell_angle_beta   73.09065133
_cell_angle_gamma   60.00533148
_symmetry_Int_Tables_number   1
_chemical_formula_structural   LiNiPO4
_chemical_formula_sum   'Li2 Ni2 P2 O8'
_cell_volume   159.38001054
_cell_formula_units_Z   2
loop_
 _symmetry_equiv_pos_site_id
 _symmetry_equiv_pos_as_xyz
  1  'x, y, z'
loop_
 _atom_site_type_symbol
 _atom_site_label
 _atom_site_symmetry_multiplicity
 _atom_site_fract_x
 _atom_site_fract_y
 _atom_site_fract_z
 _atom_site_occupancy
  Li  Li0  1  0.99499100  0.99498300  0.01506300  1.0
  Li  Li1  1  0.42945000  0.42947200  0.71168200  1.0
  Ni  Ni2  1  0.87367900  0.87375600  0.37911500  1.0
  Ni  Ni3  1  0.55076400  0.55064500  0.34752500  1.0
  P  P4  1  0.13735600  0.13731700  0.58805200  1.0
  P  P5  1  0.28715800  0.28720100  0.13843300  1.0
  O  O6  1  0.07358700  0.07362000  0.77903300  1.0
  O  O7  1  0.35080600  0.35078100  0.94745500  1.0
  O  O8  1  0.17906900  0.45737600  0.51981400  1.0
  O  O9  1  0.58078700  0.24549500  0.20658700  1.0
  O  O10  1  0.84383600  0.17910600  0.51977100  1.0
  O  O11  1  0.24550000  0.96709700  0.20665300  1.0
  O  O12  1  0.96712100  0.58075500  0.20664500  1.0
  O  O13  1  0.45737000  0.84386300  0.51976200  1.0
