# generated using pymatgen
data_LiO8
_symmetry_space_group_name_H-M   'P 1'
_cell_length_a   4.62593833
_cell_length_b   5.27028813
_cell_length_c   5.65085382
_cell_angle_alpha   103.25279574
_cell_angle_beta   108.52749294
_cell_angle_gamma   110.64765969
_symmetry_Int_Tables_number   1
_chemical_formula_structural   LiO8
_chemical_formula_sum   'Li1 O8'
_cell_volume   112.83184239
_cell_formula_units_Z   1
loop_
 _symmetry_equiv_pos_site_id
 _symmetry_equiv_pos_as_xyz
  1  'x, y, z'
loop_
 _atom_site_type_symbol
 _atom_site_label
 _atom_site_symmetry_multiplicity
 _atom_site_fract_x
 _atom_site_fract_y
 _atom_site_fract_z
 _atom_site_occupancy
  Li  Li0  1  0.23651200  0.72215400  0.57229400  1.0
  O  O1  1  0.37511600  0.35393200  0.18268700  1.0
  O  O2  1  0.15592700  0.32416500  0.27110500  1.0
  O  O3  1  0.65488500  0.67506300  0.77197400  1.0
  O  O4  1  0.87885600  0.71989700  0.68089400  1.0
  O  O5  1  0.97114700  0.16263400  0.75650700  1.0
  O  O6  1  0.13726600  0.89479500  0.26450700  1.0
  O  O7  1  0.74367100  0.12708200  0.83673600  1.0
  O  O8  1  0.35852500  0.94884900  0.17520200  1.0
