# generated using pymatgen
data_LiOsF6
_symmetry_space_group_name_H-M   'P 1'
_cell_length_a   5.15165666
_cell_length_b   5.15165666
_cell_length_c   5.51106695
_cell_angle_alpha   62.13486437
_cell_angle_beta   62.13486437
_cell_angle_gamma   59.99999148
_symmetry_Int_Tables_number   1
_chemical_formula_structural   LiOsF6
_chemical_formula_sum   'Li1 Os1 F6'
_cell_volume   106.63490814
_cell_formula_units_Z   1
loop_
 _symmetry_equiv_pos_site_id
 _symmetry_equiv_pos_as_xyz
  1  'x, y, z'
loop_
 _atom_site_type_symbol
 _atom_site_label
 _atom_site_symmetry_multiplicity
 _atom_site_fract_x
 _atom_site_fract_y
 _atom_site_fract_z
 _atom_site_occupancy
  Li  Li0  1  0.50000000  0.50000000  0.50000000  1.0
  Os  Os1  1  0.00000000  0.00000000  0.00000000  1.0
  F  F2  1  0.11291500  0.36483400  0.76107100  1.0
  F  F3  1  0.36483400  0.76118000  0.76107100  1.0
  F  F4  1  0.76118000  0.11291500  0.76107100  1.0
  F  F5  1  0.88708500  0.63516600  0.23892900  1.0
  F  F6  1  0.63516600  0.23882000  0.23892900  1.0
  F  F7  1  0.23882000  0.88708500  0.23892900  1.0
