# generated using pymatgen
data_LiPrS2
_symmetry_space_group_name_H-M   'P 1'
_cell_length_a   5.68106583
_cell_length_b   5.68372965
_cell_length_c   7.00337770
_cell_angle_alpha   113.93804716
_cell_angle_beta   113.87785332
_cell_angle_gamma   90.01326925
_symmetry_Int_Tables_number   1
_chemical_formula_structural   LiPrS2
_chemical_formula_sum   'Li2 Pr2 S4'
_cell_volume   185.29935041
_cell_formula_units_Z   2
loop_
 _symmetry_equiv_pos_site_id
 _symmetry_equiv_pos_as_xyz
  1  'x, y, z'
loop_
 _atom_site_type_symbol
 _atom_site_label
 _atom_site_symmetry_multiplicity
 _atom_site_fract_x
 _atom_site_fract_y
 _atom_site_fract_z
 _atom_site_occupancy
  Li  Li0  1  0.74257700  0.24283400  0.49358600  1.0
  Li  Li1  1  0.50040600  0.49500400  0.00489700  1.0
  Pr  Pr2  1  0.00179400  0.99759500  0.00367100  1.0
  Pr  Pr3  1  0.25289600  0.74815400  0.50381200  1.0
  S  S4  1  0.00532900  0.50127200  0.00802600  1.0
  S  S5  1  0.50101900  0.00587100  0.00162000  1.0
  S  S6  1  0.75438500  0.75804500  0.50605500  1.0
  S  S7  1  0.25552000  0.24837900  0.50117500  1.0
