# generated using pymatgen
data_LiSbS
_symmetry_space_group_name_H-M   'P 1'
_cell_length_a   4.40519875
_cell_length_b   4.40519875
_cell_length_c   7.29865400
_cell_angle_alpha   90.00000000
_cell_angle_beta   90.00000000
_cell_angle_gamma   90.17567032
_symmetry_Int_Tables_number   1
_chemical_formula_structural   LiSbS
_chemical_formula_sum   'Li2 Sb2 S2'
_cell_volume   141.63537925
_cell_formula_units_Z   2
loop_
 _symmetry_equiv_pos_site_id
 _symmetry_equiv_pos_as_xyz
  1  'x, y, z'
loop_
 _atom_site_type_symbol
 _atom_site_label
 _atom_site_symmetry_multiplicity
 _atom_site_fract_x
 _atom_site_fract_y
 _atom_site_fract_z
 _atom_site_occupancy
  Li  Li0  1  0.90053600  0.40053600  0.00000000  1.0
  Li  Li1  1  0.40053600  0.90053600  0.00000000  1.0
  S  S8  1  0.40325700  0.40325700  0.84828700  1.0
  S  S10  1  0.90325700  0.90325700  0.15171300  1.0
  Sb  Sb4  1  0.94400800  0.94400800  0.48608500  1.0
  Sb  Sb6  1  0.44400800  0.44400800  0.51391500  1.0
