# generated using pymatgen
data_LiTi2O4
_symmetry_space_group_name_H-M   'P 1'
_cell_length_a   5.98603226
_cell_length_b   5.98603226
_cell_length_c   5.98603226
_cell_angle_alpha   60.00000000
_cell_angle_beta   60.00000000
_cell_angle_gamma   60.00000000
_symmetry_Int_Tables_number   1
_chemical_formula_structural   LiTi2O4
_chemical_formula_sum   'Li2 Ti4 O8'
_cell_volume   151.67086416
_cell_formula_units_Z   2
loop_
 _symmetry_equiv_pos_site_id
 _symmetry_equiv_pos_as_xyz
  1  'x, y, z'
loop_
 _atom_site_type_symbol
 _atom_site_label
 _atom_site_symmetry_multiplicity
 _atom_site_fract_x
 _atom_site_fract_y
 _atom_site_fract_z
 _atom_site_occupancy
  Li  Li0  1  0.25000000  0.25000000  0.25000000  1.0
  Li  Li1  1  0.50000000  0.50000000  0.50000000  1.0
  Ti  Ti2  1  0.37500000  0.87500000  0.87500000  1.0
  Ti  Ti3  1  0.87500000  0.37500000  0.87500000  1.0
  Ti  Ti4  1  0.87500000  0.87500000  0.87500000  1.0
  Ti  Ti5  1  0.87500000  0.87500000  0.37500000  1.0
  O  O6  1  0.11239100  0.11239000  0.66282900  1.0
  O  O7  1  0.08717000  0.63761000  0.63761000  1.0
  O  O8  1  0.63760900  0.63761000  0.08717100  1.0
  O  O9  1  0.11239100  0.66282900  0.11239000  1.0
  O  O10  1  0.66283000  0.11239000  0.11239000  1.0
  O  O11  1  0.63760900  0.63761000  0.63761000  1.0
  O  O12  1  0.63760900  0.08717100  0.63761000  1.0
  O  O13  1  0.11239100  0.11239000  0.11239000  1.0
