# generated using pymatgen
data_LiV2OF5
_symmetry_space_group_name_H-M   'P 1'
_cell_length_a   5.15800361
_cell_length_b   5.18907758
_cell_length_c   5.53158792
_cell_angle_alpha   91.27999053
_cell_angle_beta   117.48687389
_cell_angle_gamma   118.39342337
_symmetry_Int_Tables_number   1
_chemical_formula_structural   LiV2OF5
_chemical_formula_sum   'Li1 V2 O1 F5'
_cell_volume   109.85495900
_cell_formula_units_Z   1
loop_
 _symmetry_equiv_pos_site_id
 _symmetry_equiv_pos_as_xyz
  1  'x, y, z'
loop_
 _atom_site_type_symbol
 _atom_site_label
 _atom_site_symmetry_multiplicity
 _atom_site_fract_x
 _atom_site_fract_y
 _atom_site_fract_z
 _atom_site_occupancy
  F  F8  1  0.24637450  0.31535600  0.74590750  1.0
  F  F10  1  0.16069350  0.39743450  0.22398200  1.0
  F  F12  1  0.82121200  0.51476650  0.72473050  1.0
  F  F14  1  0.45315700  0.93982850  0.74489650  1.0
  F  F16  1  0.80841050  0.75901000  0.22449950  1.0
  Li  Li0  1  0.69811500  0.33914300  0.08727800  1.0
  O  O6  1  0.42796300  0.02176350  0.21880450  1.0
  V  V2  1  0.31972600  0.67548400  0.98792300  1.0
  V  V3  1  0.31817850  0.14774800  0.45512250  1.0
