# generated using pymatgen
data_LiV2F7
_symmetry_space_group_name_H-M   'P 1'
_cell_length_a   7.12570200
_cell_length_b   7.46947679
_cell_length_c   7.46947679
_cell_angle_alpha   60.61031711
_cell_angle_beta   61.51113060
_cell_angle_gamma   61.51113060
_symmetry_Int_Tables_number   1
_chemical_formula_structural   LiV2F7
_chemical_formula_sum   'Li2 V4 F14'
_cell_volume   288.73160033
_cell_formula_units_Z   2
loop_
 _symmetry_equiv_pos_site_id
 _symmetry_equiv_pos_as_xyz
  1  'x, y, z'
loop_
 _atom_site_type_symbol
 _atom_site_label
 _atom_site_symmetry_multiplicity
 _atom_site_fract_x
 _atom_site_fract_y
 _atom_site_fract_z
 _atom_site_occupancy
  Li  Li0  1  0.50000000  0.50000000  0.50000000  1.0
  Li  Li1  1  0.00000000  0.00000000  0.00000000  1.0
  V  V2  1  0.50000000  0.50000000  0.00000000  1.0
  V  V3  1  0.50000000  1.00000000  0.50000000  1.0
  V  V4  1  0.50000000  0.00000000  1.00000000  1.0
  V  V5  1  1.00000000  0.50000000  0.50000000  1.0
  F  F6  1  0.80540700  0.95011500  0.95011500  1.0
  F  F7  1  0.81516200  0.42357800  0.81862700  1.0
  F  F8  1  0.81516100  0.81862800  0.42357800  1.0
  F  F9  1  0.79436300  0.45011500  0.45011500  1.0
  F  F10  1  0.40546400  0.75000000  0.75000000  1.0
  F  F11  1  0.44263400  0.92357800  0.31862700  1.0
  F  F12  1  0.44263300  0.31862800  0.92357800  1.0
  F  F13  1  0.55736700  0.68137200  0.07642200  1.0
  F  F14  1  0.55736600  0.07642200  0.68137300  1.0
  F  F15  1  0.59453600  0.25000000  0.25000000  1.0
  F  F16  1  0.20563700  0.54988500  0.54988500  1.0
  F  F17  1  0.18483900  0.18137200  0.57642200  1.0
  F  F18  1  0.18483800  0.57642200  0.18137300  1.0
  F  F19  1  0.19459300  0.04988500  0.04988500  1.0
