# generated using pymatgen
data_LiVF4
_symmetry_space_group_name_H-M   'P 1'
_cell_length_a   3.11853400
_cell_length_b   4.71740532
_cell_length_c   4.71740532
_cell_angle_alpha   92.54987152
_cell_angle_beta   90.00000000
_cell_angle_gamma   90.00000000
_symmetry_Int_Tables_number   1
_chemical_formula_structural   LiVF4
_chemical_formula_sum   'Li1 V1 F4'
_cell_volume   69.33086997
_cell_formula_units_Z   1
loop_
 _symmetry_equiv_pos_site_id
 _symmetry_equiv_pos_as_xyz
  1  'x, y, z'
loop_
 _atom_site_type_symbol
 _atom_site_label
 _atom_site_symmetry_multiplicity
 _atom_site_fract_x
 _atom_site_fract_y
 _atom_site_fract_z
 _atom_site_occupancy
  Li  Li0  1  1.00000000  0.50000000  0.50000000  1.0
  V  V1  1  0.50000000  0.00000000  0.00000000  1.0
  F  F2  1  0.00000000  0.81062900  0.18937100  1.0
  F  F3  1  0.50000000  0.29348900  0.29348900  1.0
  F  F4  1  1.00000000  0.18937100  0.81062900  1.0
  F  F5  1  0.50000000  0.70651100  0.70651100  1.0
