# generated using pymatgen
data_LiVFeO4
_symmetry_space_group_name_H-M   'P 1'
_cell_length_a   5.23849285
_cell_length_b   5.23858055
_cell_length_c   6.37904700
_cell_angle_alpha   89.99765512
_cell_angle_beta   89.99753333
_cell_angle_gamma   67.98175205
_symmetry_Int_Tables_number   1
_chemical_formula_structural   LiVFeO4
_chemical_formula_sum   'Li2 V2 Fe2 O8'
_cell_volume   162.28774815
_cell_formula_units_Z   2
loop_
 _symmetry_equiv_pos_site_id
 _symmetry_equiv_pos_as_xyz
  1  'x, y, z'
loop_
 _atom_site_type_symbol
 _atom_site_label
 _atom_site_symmetry_multiplicity
 _atom_site_fract_x
 _atom_site_fract_y
 _atom_site_fract_z
 _atom_site_occupancy
  Li  Li0  1  0.66347700  0.66347900  0.25000100  1.0
  Li  Li1  1  0.33652300  0.33652400  0.75000500  1.0
  V  V2  1  0.64683000  0.64683000  0.74999500  1.0
  V  V3  1  0.35316900  0.35317300  0.25000500  1.0
  Fe  Fe4  1  0.00001200  0.99998600  0.99999200  1.0
  Fe  Fe5  1  0.00000100  0.99999700  0.49999500  1.0
  O  O6  1  0.76148900  0.76148200  0.97164700  1.0
  O  O7  1  0.76149300  0.76148400  0.52833000  1.0
  O  O8  1  0.23850300  0.23851800  0.02835500  1.0
  O  O9  1  0.23851100  0.23851700  0.47167200  1.0
  O  O10  1  0.28383600  0.75780700  0.75000200  1.0
  O  O11  1  0.24219000  0.71615900  0.25000100  1.0
  O  O12  1  0.75781000  0.28384700  0.74999700  1.0
  O  O13  1  0.71615600  0.24219500  0.25000200  1.0
