# generated using pymatgen
data_LiYGe
_symmetry_space_group_name_H-M   'P 1'
_cell_length_a   4.25910200
_cell_length_b   7.09235800
_cell_length_c   7.09235783
_cell_angle_alpha   120.00000081
_cell_angle_beta   90.00000000
_cell_angle_gamma   90.00000000
_symmetry_Int_Tables_number   1
_chemical_formula_structural   LiYGe
_chemical_formula_sum   'Li3 Y3 Ge3'
_cell_volume   185.53675541
_cell_formula_units_Z   3
loop_
 _symmetry_equiv_pos_site_id
 _symmetry_equiv_pos_as_xyz
  1  'x, y, z'
loop_
 _atom_site_type_symbol
 _atom_site_label
 _atom_site_symmetry_multiplicity
 _atom_site_fract_x
 _atom_site_fract_y
 _atom_site_fract_z
 _atom_site_occupancy
  Li  Li0  1  0.50000000  0.76674200  0.76674200  1.0
  Li  Li1  1  0.50000000  0.23325800  1.00000000  1.0
  Li  Li2  1  0.50000000  0.00000000  0.23325800  1.0
  Y  Y3  1  0.00000000  0.00000000  0.57680300  1.0
  Y  Y4  1  1.00000000  0.42319700  0.42319700  1.0
  Y  Y5  1  1.00000000  0.57680300  1.00000000  1.0
  Ge  Ge6  1  0.50000000  0.66666667  0.33333333  1.0
  Ge  Ge7  1  0.50000000  0.33333333  0.66666667  1.0
  Ge  Ge8  1  0.00000000  0.00000000  0.00000000  1.0
