# generated using pymatgen
data_Lu2Mo2C3
_symmetry_space_group_name_H-M   'P 1'
_cell_length_a   3.34226600
_cell_length_b   5.59872656
_cell_length_c   5.87162253
_cell_angle_alpha   108.35778628
_cell_angle_beta   106.53564483
_cell_angle_gamma   90.00000000
_symmetry_Int_Tables_number   1
_chemical_formula_structural   Lu2Mo2C3
_chemical_formula_sum   'Lu2 Mo2 C3'
_cell_volume   99.48167165
_cell_formula_units_Z   1
loop_
 _symmetry_equiv_pos_site_id
 _symmetry_equiv_pos_as_xyz
  1  'x, y, z'
loop_
 _atom_site_type_symbol
 _atom_site_label
 _atom_site_symmetry_multiplicity
 _atom_site_fract_x
 _atom_site_fract_y
 _atom_site_fract_z
 _atom_site_occupancy
  Lu  Lu0  1  0.61604900  0.31764300  0.23209800  1.0
  Lu  Lu1  1  0.38395100  0.68235700  0.76790200  1.0
  Mo  Mo2  1  0.85241600  0.13395300  0.70483200  1.0
  Mo  Mo3  1  0.14758400  0.86604700  0.29516800  1.0
  C  C4  1  0.26855800  0.24715900  0.53711600  1.0
  C  C5  1  0.73144200  0.75284100  0.46288400  1.0
  C  C6  1  0.00000000  0.00000000  0.00000000  1.0
