# generated using pymatgen
data_Lu2Si2O7
_symmetry_space_group_name_H-M   'P 1'
_cell_length_a   4.76268296
_cell_length_b   5.57873502
_cell_length_c   5.57873502
_cell_angle_alpha   74.69007599
_cell_angle_beta   82.60929625
_cell_angle_gamma   97.39070375
_symmetry_Int_Tables_number   1
_chemical_formula_structural   Lu2Si2O7
_chemical_formula_sum   'Lu2 Si2 O7'
_cell_volume   139.71398234
_cell_formula_units_Z   1
loop_
 _symmetry_equiv_pos_site_id
 _symmetry_equiv_pos_as_xyz
  1  'x, y, z'
loop_
 _atom_site_type_symbol
 _atom_site_label
 _atom_site_symmetry_multiplicity
 _atom_site_fract_x
 _atom_site_fract_y
 _atom_site_fract_z
 _atom_site_occupancy
  Lu  Lu0  1  0.00000000  0.30857400  0.30857400  1.0
  Lu  Lu1  1  0.00000000  0.69142600  0.69142600  1.0
  Si  Si2  1  0.40984000  0.22059400  0.77940600  1.0
  Si  Si3  1  0.59016000  0.77940600  0.22059400  1.0
  O  O4  1  0.78264400  0.91670600  0.38816900  1.0
  O  O5  1  0.21735600  0.38816900  0.91670600  1.0
  O  O6  1  0.21735600  0.08329400  0.61183100  1.0
  O  O7  1  0.78264400  0.61183100  0.08329400  1.0
  O  O8  1  0.50000000  0.00000000  0.00000000  1.0
  O  O9  1  0.28360500  0.61390200  0.38609800  1.0
  O  O10  1  0.71639500  0.38609800  0.61390200  1.0
