# generated using pymatgen
data_Lu3Ge3Ir2
_symmetry_space_group_name_H-M   'P 1'
_cell_length_a   4.28432600
_cell_length_b   5.56828057
_cell_length_c   14.11160000
_cell_angle_alpha   90.00000000
_cell_angle_beta   90.00000000
_cell_angle_gamma   112.62562400
_symmetry_Int_Tables_number   1
_chemical_formula_structural   Lu3Ge3Ir2
_chemical_formula_sum   'Lu6 Ge6 Ir4'
_cell_volume   310.74173048
_cell_formula_units_Z   2
loop_
 _symmetry_equiv_pos_site_id
 _symmetry_equiv_pos_as_xyz
  1  'x, y, z'
loop_
 _atom_site_type_symbol
 _atom_site_label
 _atom_site_symmetry_multiplicity
 _atom_site_fract_x
 _atom_site_fract_y
 _atom_site_fract_z
 _atom_site_occupancy
  Lu  Lu0  1  0.58427700  0.16855400  0.61029100  1.0
  Lu  Lu1  1  0.58427700  0.16855400  0.88970900  1.0
  Lu  Lu2  1  0.14314000  0.28628000  0.25000000  1.0
  Lu  Lu3  1  0.85686000  0.71371900  0.75000000  1.0
  Lu  Lu4  1  0.41572300  0.83144600  0.38970900  1.0
  Lu  Lu5  1  0.41572300  0.83144600  0.11029100  1.0
  Ge  Ge6  1  0.12166700  0.24333400  0.46485200  1.0
  Ge  Ge7  1  0.12166700  0.24333400  0.03514800  1.0
  Ge  Ge8  1  0.15190200  0.30380400  0.75000000  1.0
  Ge  Ge9  1  0.87833300  0.75666600  0.96485200  1.0
  Ge  Ge10  1  0.87833300  0.75666600  0.53514800  1.0
  Ge  Ge11  1  0.84809800  0.69619600  0.25000000  1.0
  Ir  Ir12  1  0.70024600  0.40049200  0.39678600  1.0
  Ir  Ir13  1  0.29975400  0.59950800  0.89678600  1.0
  Ir  Ir14  1  0.70024600  0.40049200  0.10321400  1.0
  Ir  Ir15  1  0.29975400  0.59950800  0.60321400  1.0
