# generated using pymatgen
data_Lu5Pt3
_symmetry_space_group_name_H-M   'P 1'
_cell_length_a   5.99965300
_cell_length_b   8.31907400
_cell_length_c   8.31907450
_cell_angle_alpha   119.99999801
_cell_angle_beta   90.00000000
_cell_angle_gamma   90.00000000
_symmetry_Int_Tables_number   1
_chemical_formula_structural   Lu5Pt3
_chemical_formula_sum   'Lu10 Pt6'
_cell_volume   359.58931160
_cell_formula_units_Z   2
loop_
 _symmetry_equiv_pos_site_id
 _symmetry_equiv_pos_as_xyz
  1  'x, y, z'
loop_
 _atom_site_type_symbol
 _atom_site_label
 _atom_site_symmetry_multiplicity
 _atom_site_fract_x
 _atom_site_fract_y
 _atom_site_fract_z
 _atom_site_occupancy
  Lu  Lu0  1  0.50000000  0.33333333  0.66666667  1.0
  Lu  Lu1  1  0.50000000  0.66666667  0.33333333  1.0
  Lu  Lu2  1  1.00000000  0.66666667  0.33333333  1.0
  Lu  Lu3  1  1.00000000  0.33333333  0.66666667  1.0
  Lu  Lu4  1  0.75000000  0.24858100  1.00000000  1.0
  Lu  Lu5  1  0.75000000  0.75141900  0.75141900  1.0
  Lu  Lu6  1  0.75000000  1.00000000  0.24858100  1.0
  Lu  Lu7  1  0.25000000  0.75141900  1.00000000  1.0
  Lu  Lu8  1  0.25000000  0.24858100  0.24858100  1.0
  Lu  Lu9  1  0.25000000  1.00000000  0.75141900  1.0
  Pt  Pt10  1  0.75000000  0.60502800  1.00000000  1.0
  Pt  Pt11  1  0.75000000  0.39497200  0.39497200  1.0
  Pt  Pt12  1  0.75000000  0.00000000  0.60502800  1.0
  Pt  Pt13  1  0.25000000  0.39497200  1.00000000  1.0
  Pt  Pt14  1  0.25000000  0.60502800  0.60502800  1.0
  Pt  Pt15  1  0.25000000  1.00000000  0.39497200  1.0
