# generated using pymatgen
data_Lu6FeSb2
_symmetry_space_group_name_H-M   'P 1'
_cell_length_a   4.06790200
_cell_length_b   8.01637600
_cell_length_c   8.01637664
_cell_angle_alpha   119.99999736
_cell_angle_beta   90.00000000
_cell_angle_gamma   90.00000000
_symmetry_Int_Tables_number   1
_chemical_formula_structural   Lu6FeSb2
_chemical_formula_sum   'Lu6 Fe1 Sb2'
_cell_volume   226.39004095
_cell_formula_units_Z   1
loop_
 _symmetry_equiv_pos_site_id
 _symmetry_equiv_pos_as_xyz
  1  'x, y, z'
loop_
 _atom_site_type_symbol
 _atom_site_label
 _atom_site_symmetry_multiplicity
 _atom_site_fract_x
 _atom_site_fract_y
 _atom_site_fract_z
 _atom_site_occupancy
  Lu  Lu0  1  1.00000000  0.76690600  0.76690600  1.0
  Lu  Lu1  1  1.00000000  0.23309400  0.00000000  1.0
  Lu  Lu2  1  0.00000000  1.00000000  0.23309400  1.0
  Lu  Lu3  1  0.50000000  0.00000000  0.61081200  1.0
  Lu  Lu4  1  0.50000000  0.61081200  0.00000000  1.0
  Lu  Lu5  1  0.50000000  0.38918800  0.38918800  1.0
  Fe  Fe6  1  0.50000000  0.00000000  0.00000000  1.0
  Sb  Sb7  1  1.00000000  0.66666667  0.33333333  1.0
  Sb  Sb8  1  1.00000000  0.33333333  0.66666667  1.0
