# generated using pymatgen
data_Lu6FeBi2
_symmetry_space_group_name_H-M   'P 1'
_cell_length_a   4.11363700
_cell_length_b   8.14202400
_cell_length_c   8.14202346
_cell_angle_alpha   120.00000219
_cell_angle_beta   90.00000000
_cell_angle_gamma   90.00000000
_symmetry_Int_Tables_number   1
_chemical_formula_structural   Lu6FeBi2
_chemical_formula_sum   'Lu6 Fe1 Bi2'
_cell_volume   236.16814327
_cell_formula_units_Z   1
loop_
 _symmetry_equiv_pos_site_id
 _symmetry_equiv_pos_as_xyz
  1  'x, y, z'
loop_
 _atom_site_type_symbol
 _atom_site_label
 _atom_site_symmetry_multiplicity
 _atom_site_fract_x
 _atom_site_fract_y
 _atom_site_fract_z
 _atom_site_occupancy
  Lu  Lu0  1  0.50000000  0.76969800  0.76969800  1.0
  Lu  Lu1  1  0.50000000  0.00000000  0.23030200  1.0
  Lu  Lu2  1  0.50000000  0.23030200  1.00000000  1.0
  Lu  Lu3  1  0.00000000  0.38363900  0.38363900  1.0
  Lu  Lu4  1  1.00000000  0.00000000  0.61636100  1.0
  Lu  Lu5  1  0.00000000  0.61636100  0.00000000  1.0
  Fe  Fe6  1  0.00000000  0.00000000  0.00000000  1.0
  Bi  Bi7  1  0.50000000  0.66666667  0.33333333  1.0
  Bi  Bi8  1  0.50000000  0.33333333  0.66666667  1.0
