# generated using pymatgen
data_LuGaAu
_symmetry_space_group_name_H-M   'P 1'
_cell_length_a   4.48227000
_cell_length_b   5.63586660
_cell_length_c   5.70420665
_cell_angle_alpha   75.65466133
_cell_angle_beta   66.86545538
_cell_angle_gamma   66.56828767
_symmetry_Int_Tables_number   1
_chemical_formula_structural   LuGaAu
_chemical_formula_sum   'Lu2 Ga2 Au2'
_cell_volume   120.86420650
_cell_formula_units_Z   2
loop_
 _symmetry_equiv_pos_site_id
 _symmetry_equiv_pos_as_xyz
  1  'x, y, z'
loop_
 _atom_site_type_symbol
 _atom_site_label
 _atom_site_symmetry_multiplicity
 _atom_site_fract_x
 _atom_site_fract_y
 _atom_site_fract_z
 _atom_site_occupancy
  Lu  Lu0  1  0.53736800  0.21990600  0.70535800  1.0
  Lu  Lu1  1  0.46263200  0.78009400  0.29464200  1.0
  Ga  Ga2  1  0.84109800  0.20706500  0.11073900  1.0
  Ga  Ga3  1  0.15890200  0.79293500  0.88926100  1.0
  Au  Au4  1  0.17677900  0.36420000  0.28224200  1.0
  Au  Au5  1  0.82322100  0.63580000  0.71775800  1.0
