# generated using pymatgen
data_LuGa2Ni3
_symmetry_space_group_name_H-M   'P 1'
_cell_length_a   4.06560500
_cell_length_b   8.69695600
_cell_length_c   8.69695528
_cell_angle_alpha   120.00000274
_cell_angle_beta   90.00000000
_cell_angle_gamma   90.00000000
_symmetry_Int_Tables_number   1
_chemical_formula_structural   LuGa2Ni3
_chemical_formula_sum   'Lu3 Ga6 Ni9'
_cell_volume   266.31173950
_cell_formula_units_Z   3
loop_
 _symmetry_equiv_pos_site_id
 _symmetry_equiv_pos_as_xyz
  1  'x, y, z'
loop_
 _atom_site_type_symbol
 _atom_site_label
 _atom_site_symmetry_multiplicity
 _atom_site_fract_x
 _atom_site_fract_y
 _atom_site_fract_z
 _atom_site_occupancy
  Lu  Lu0  1  0.50000000  0.33333333  0.66666667  1.0
  Lu  Lu1  1  0.50000000  0.66666667  0.33333333  1.0
  Lu  Lu2  1  0.00000000  0.00000000  0.00000000  1.0
  Ga  Ga3  1  0.00000000  0.51464600  1.00000000  1.0
  Ga  Ga4  1  0.00000000  0.48535400  0.48535400  1.0
  Ga  Ga5  1  1.00000000  1.00000000  0.51464600  1.0
  Ga  Ga6  1  0.50000000  0.27091500  0.00000000  1.0
  Ga  Ga7  1  0.50000000  0.72908500  0.72908500  1.0
  Ga  Ga8  1  0.50000000  1.00000000  0.27091500  1.0
  Ni  Ni9  1  0.00000000  0.17649000  0.37247700  1.0
  Ni  Ni10  1  0.00000000  0.19598700  0.82351000  1.0
  Ni  Ni11  1  0.00000000  0.62752300  0.80401300  1.0
  Ni  Ni12  1  1.00000000  0.80401300  0.62752300  1.0
  Ni  Ni13  1  0.00000000  0.37247700  0.17649000  1.0
  Ni  Ni14  1  1.00000000  0.82351000  0.19598700  1.0
  Ni  Ni15  1  0.50000000  0.70437000  0.00000000  1.0
  Ni  Ni16  1  0.50000000  0.29563000  0.29563000  1.0
  Ni  Ni17  1  0.50000000  1.00000000  0.70437000  1.0
