# generated using pymatgen
data_LuSnIr
_symmetry_space_group_name_H-M   'P 1'
_cell_length_a   3.78625000
_cell_length_b   7.53470600
_cell_length_c   7.53470617
_cell_angle_alpha   119.99999926
_cell_angle_beta   90.00000000
_cell_angle_gamma   90.00000000
_symmetry_Int_Tables_number   1
_chemical_formula_structural   LuSnIr
_chemical_formula_sum   'Lu3 Sn3 Ir3'
_cell_volume   186.15407746
_cell_formula_units_Z   3
loop_
 _symmetry_equiv_pos_site_id
 _symmetry_equiv_pos_as_xyz
  1  'x, y, z'
loop_
 _atom_site_type_symbol
 _atom_site_label
 _atom_site_symmetry_multiplicity
 _atom_site_fract_x
 _atom_site_fract_y
 _atom_site_fract_z
 _atom_site_occupancy
  Lu  Lu0  1  0.50000000  0.00000000  0.40173900  1.0
  Lu  Lu1  1  0.50000000  0.40173900  1.00000000  1.0
  Lu  Lu2  1  0.50000000  0.59826100  0.59826100  1.0
  Sn  Sn3  1  0.00000000  0.00000000  0.73502800  1.0
  Sn  Sn4  1  1.00000000  0.73502800  1.00000000  1.0
  Sn  Sn5  1  1.00000000  0.26497200  0.26497200  1.0
  Ir  Ir6  1  1.00000000  0.66666667  0.33333333  1.0
  Ir  Ir7  1  1.00000000  0.33333333  0.66666667  1.0
  Ir  Ir8  1  0.50000000  0.00000000  0.00000000  1.0
