# generated using pymatgen
data_Mg(BiO2)2
_symmetry_space_group_name_H-M   'P 1'
_cell_length_a   3.39958600
_cell_length_b   6.92934888
_cell_length_c   10.17230411
_cell_angle_alpha   72.69302023
_cell_angle_beta   80.38074486
_cell_angle_gamma   75.80023421
_symmetry_Int_Tables_number   1
_chemical_formula_structural   Mg(BiO2)2
_chemical_formula_sum   'Mg2 Bi4 O8'
_cell_volume   220.63898916
_cell_formula_units_Z   2
loop_
 _symmetry_equiv_pos_site_id
 _symmetry_equiv_pos_as_xyz
  1  'x, y, z'
loop_
 _atom_site_type_symbol
 _atom_site_label
 _atom_site_symmetry_multiplicity
 _atom_site_fract_x
 _atom_site_fract_y
 _atom_site_fract_z
 _atom_site_occupancy
  Mg  Mg0  1  0.26192700  0.73216600  0.74398000  1.0
  Mg  Mg1  1  0.73807300  0.26783400  0.25602000  1.0
  Bi  Bi2  1  0.61761300  0.15820200  0.60657200  1.0
  Bi  Bi3  1  0.11567600  0.68506000  0.08358800  1.0
  Bi  Bi4  1  0.88432400  0.31494000  0.91641200  1.0
  Bi  Bi5  1  0.38238700  0.84179800  0.39342800  1.0
  O  O6  1  0.89453700  0.96071400  0.25021200  1.0
  O  O7  1  0.40827600  0.41609700  0.76735100  1.0
  O  O8  1  0.59172400  0.58390300  0.23264900  1.0
  O  O9  1  0.10546300  0.03928600  0.74978800  1.0
  O  O10  1  0.21665600  0.16691100  0.39977700  1.0
  O  O11  1  0.72851900  0.64574100  0.89722100  1.0
  O  O12  1  0.78334400  0.83308900  0.60022300  1.0
  O  O13  1  0.27148100  0.35425900  0.10277900  1.0
