# generated using pymatgen
data_Mg(CuO2)2
_symmetry_space_group_name_H-M   'P 1'
_cell_length_a   5.82375600
_cell_length_b   5.97178256
_cell_length_c   5.82375600
_cell_angle_alpha   60.81663708
_cell_angle_beta   90.00000000
_cell_angle_gamma   119.18336292
_symmetry_Int_Tables_number   1
_chemical_formula_structural   Mg(CuO2)2
_chemical_formula_sum   'Mg2 Cu4 O8'
_cell_volume   146.68137818
_cell_formula_units_Z   2
loop_
 _symmetry_equiv_pos_site_id
 _symmetry_equiv_pos_as_xyz
  1  'x, y, z'
loop_
 _atom_site_type_symbol
 _atom_site_label
 _atom_site_symmetry_multiplicity
 _atom_site_fract_x
 _atom_site_fract_y
 _atom_site_fract_z
 _atom_site_occupancy
  Mg  Mg0  1  0.25000000  0.50000000  0.25000000  1.0
  Mg  Mg1  1  0.50000000  0.00000000  0.50000000  1.0
  Cu  Cu2  1  0.87500000  0.75000000  0.37500000  1.0
  Cu  Cu3  1  0.87500000  0.75000000  0.87500000  1.0
  Cu  Cu4  1  0.87500000  0.25000000  0.87500000  1.0
  Cu  Cu5  1  0.37500000  0.25000000  0.87500000  1.0
  O  O6  1  0.76782000  0.33834100  0.56001200  1.0
  O  O7  1  0.56001300  0.66166000  0.57052000  1.0
  O  O8  1  0.10164700  0.66165900  0.76782000  1.0
  O  O9  1  0.17947900  0.16166000  0.64835300  1.0
  O  O10  1  0.64835300  0.83834100  0.98218000  1.0
  O  O11  1  0.18998700  0.83834000  0.17948000  1.0
  O  O12  1  0.57052100  0.33834000  0.10164700  1.0
  O  O13  1  0.98218000  0.16165900  0.18998800  1.0
