# generated using pymatgen
data_Mg(CrS2)4
_symmetry_space_group_name_H-M   'P 1'
_cell_length_a   6.82425632
_cell_length_b   6.82425524
_cell_length_c   7.15822918
_cell_angle_alpha   61.53171186
_cell_angle_beta   61.53170682
_cell_angle_gamma   59.99999686
_symmetry_Int_Tables_number   1
_chemical_formula_structural   Mg(CrS2)4
_chemical_formula_sum   'Mg1 Cr4 S8'
_cell_volume   241.03333822
_cell_formula_units_Z   1
loop_
 _symmetry_equiv_pos_site_id
 _symmetry_equiv_pos_as_xyz
  1  'x, y, z'
loop_
 _atom_site_type_symbol
 _atom_site_label
 _atom_site_symmetry_multiplicity
 _atom_site_fract_x
 _atom_site_fract_y
 _atom_site_fract_z
 _atom_site_occupancy
  Mg  Mg0  1  0.50000100  0.50000000  0.50000000  1.0
  Cr  Cr1  1  0.99999900  0.50000100  0.99999900  1.0
  Cr  Cr2  1  0.50000000  0.99999900  0.00000000  1.0
  Cr  Cr3  1  0.50000000  0.50000000  0.00000000  1.0
  Cr  Cr4  1  0.00000000  0.00000000  0.00000000  1.0
  S  S5  1  0.25695100  0.75907500  0.22489900  1.0
  S  S6  1  0.24092500  0.24092400  0.77510200  1.0
  S  S7  1  0.74305000  0.24092400  0.77510200  1.0
  S  S8  1  0.24092500  0.74304800  0.77510200  1.0
  S  S9  1  0.25955000  0.25954900  0.22135200  1.0
  S  S10  1  0.74045100  0.74045100  0.77864700  1.0
  S  S11  1  0.75907600  0.25695200  0.22489700  1.0
  S  S12  1  0.75907600  0.75907600  0.22489700  1.0
