# generated using pymatgen
data_Mg(GaO2)2
_symmetry_space_group_name_H-M   'P 1'
_cell_length_a   5.88320200
_cell_length_b   5.91929294
_cell_length_c   5.91929294
_cell_angle_alpha   60.79164872
_cell_angle_beta   60.20148866
_cell_angle_gamma   60.20148866
_symmetry_Int_Tables_number   1
_chemical_formula_structural   Mg(GaO2)2
_chemical_formula_sum   'Mg2 Ga4 O8'
_cell_volume   147.06233675
_cell_formula_units_Z   2
loop_
 _symmetry_equiv_pos_site_id
 _symmetry_equiv_pos_as_xyz
  1  'x, y, z'
loop_
 _atom_site_type_symbol
 _atom_site_label
 _atom_site_symmetry_multiplicity
 _atom_site_fract_x
 _atom_site_fract_y
 _atom_site_fract_z
 _atom_site_occupancy
  Mg  Mg0  1  0.00000000  1.00000000  0.50000000  1.0
  Mg  Mg1  1  0.50000000  0.00000000  0.50000000  1.0
  Ga  Ga2  1  0.13515000  0.61485000  0.11485000  1.0
  Ga  Ga3  1  0.86485000  0.38515000  0.88515000  1.0
  Ga  Ga4  1  0.50000000  1.00000000  1.00000000  1.0
  Ga  Ga5  1  0.50000000  0.50000000  0.50000000  1.0
  O  O6  1  0.73815400  0.77109600  0.75259500  1.0
  O  O7  1  0.73815500  0.25259400  0.27109600  1.0
  O  O8  1  0.73694000  0.24913900  0.74913900  1.0
  O  O9  1  0.26478200  0.24913900  0.74913900  1.0
  O  O10  1  0.73521800  0.75086100  0.25086100  1.0
  O  O11  1  0.26306000  0.75086100  0.25086100  1.0
  O  O12  1  0.26184500  0.74740600  0.72890400  1.0
  O  O13  1  0.26184600  0.22890400  0.24740500  1.0
