# generated using pymatgen
data_Mg2Ag
_symmetry_space_group_name_H-M   'P 1'
_cell_length_a   3.27941400
_cell_length_b   4.86958800
_cell_length_c   7.62309561
_cell_angle_alpha   90.00000000
_cell_angle_beta   102.42123356
_cell_angle_gamma   90.00000000
_symmetry_Int_Tables_number   1
_chemical_formula_structural   Mg2Ag
_chemical_formula_sum   'Mg4 Ag2'
_cell_volume   118.88670070
_cell_formula_units_Z   2
loop_
 _symmetry_equiv_pos_site_id
 _symmetry_equiv_pos_as_xyz
  1  'x, y, z'
loop_
 _atom_site_type_symbol
 _atom_site_label
 _atom_site_symmetry_multiplicity
 _atom_site_fract_x
 _atom_site_fract_y
 _atom_site_fract_z
 _atom_site_occupancy
  Mg  Mg0  1  0.26174300  0.25000000  0.52348600  1.0
  Mg  Mg1  1  0.93764000  0.25000000  0.87528000  1.0
  Mg  Mg2  1  0.73825700  0.75000000  0.47651400  1.0
  Mg  Mg3  1  0.06236000  0.75000000  0.12472000  1.0
  Ag  Ag4  1  0.60477400  0.25000000  0.20954800  1.0
  Ag  Ag5  1  0.39522600  0.75000000  0.79045200  1.0
