# generated using pymatgen
data_Mg2CuWO6
_symmetry_space_group_name_H-M   'P 1'
_cell_length_a   5.00121900
_cell_length_b   5.17574600
_cell_length_c   8.52887714
_cell_angle_alpha   90.00000000
_cell_angle_beta   91.00504969
_cell_angle_gamma   90.00000000
_symmetry_Int_Tables_number   1
_chemical_formula_structural   Mg2CuWO6
_chemical_formula_sum   'Mg4 Cu2 W2 O12'
_cell_volume   220.73635470
_cell_formula_units_Z   2
loop_
 _symmetry_equiv_pos_site_id
 _symmetry_equiv_pos_as_xyz
  1  'x, y, z'
loop_
 _atom_site_type_symbol
 _atom_site_label
 _atom_site_symmetry_multiplicity
 _atom_site_fract_x
 _atom_site_fract_y
 _atom_site_fract_z
 _atom_site_occupancy
  Mg  Mg0  1  0.97338700  0.94800600  0.26779700  1.0
  Mg  Mg1  1  0.52661300  0.44800600  0.23220300  1.0
  Mg  Mg2  1  0.02661300  0.05199400  0.73220300  1.0
  Mg  Mg3  1  0.47338700  0.55199400  0.76779700  1.0
  Cu  Cu4  1  0.50000000  1.00000000  0.00000000  1.0
  Cu  Cu5  1  0.00000000  0.50000000  0.50000000  1.0
  W  W6  1  0.50000000  0.00000000  0.50000000  1.0
  W  W7  1  0.00000000  0.50000000  0.00000000  1.0
  O  O8  1  0.69034600  0.71029200  0.39112300  1.0
  O  O9  1  0.80965400  0.21029200  0.10887700  1.0
  O  O10  1  0.30965400  0.28970800  0.60887700  1.0
  O  O11  1  0.19034600  0.78970800  0.89112300  1.0
  O  O12  1  0.19104600  0.79912700  0.55234700  1.0
  O  O13  1  0.30895400  0.29912700  0.94765300  1.0
  O  O14  1  0.80895400  0.20087300  0.44765300  1.0
  O  O15  1  0.69104600  0.70087300  0.05234700  1.0
  O  O16  1  0.15876200  0.60744100  0.19724100  1.0
  O  O17  1  0.34123800  0.10744100  0.30275900  1.0
  O  O18  1  0.65876200  0.89255900  0.69724100  1.0
  O  O19  1  0.84123800  0.39255900  0.80275900  1.0
