# generated using pymatgen
data_Mg2Mn3O8
_symmetry_space_group_name_H-M   'P 1'
_cell_length_a   5.86227018
_cell_length_b   5.86227018
_cell_length_c   5.96727955
_cell_angle_alpha   60.58043404
_cell_angle_beta   60.58043404
_cell_angle_gamma   60.00000000
_symmetry_Int_Tables_number   1
_chemical_formula_structural   Mg2Mn3O8
_chemical_formula_sum   'Mg2 Mn3 O8'
_cell_volume   146.26756287
_cell_formula_units_Z   1
loop_
 _symmetry_equiv_pos_site_id
 _symmetry_equiv_pos_as_xyz
  1  'x, y, z'
loop_
 _atom_site_type_symbol
 _atom_site_label
 _atom_site_symmetry_multiplicity
 _atom_site_fract_x
 _atom_site_fract_y
 _atom_site_fract_z
 _atom_site_occupancy
  Mg  Mg0  1  0.11921100  0.11921100  0.64236700  1.0
  Mg  Mg1  1  0.49993000  0.49993000  0.50021000  1.0
  Mn  Mn2  1  0.99332900  0.50202700  0.00261700  1.0
  Mn  Mn3  1  0.50202700  0.50202700  0.00261700  1.0
  Mn  Mn4  1  0.50202700  0.99332900  0.00261700  1.0
  O  O5  1  0.26123100  0.26123100  0.21630700  1.0
  O  O6  1  0.25571900  0.71015000  0.77841200  1.0
  O  O7  1  0.25571900  0.25571900  0.77841200  1.0
  O  O8  1  0.71015000  0.25571900  0.77841200  1.0
  O  O9  1  0.74700500  0.74700500  0.20917300  1.0
  O  O10  1  0.29681700  0.74700500  0.20917300  1.0
  O  O11  1  0.74700500  0.29681700  0.20917300  1.0
  O  O12  1  0.73482900  0.73482900  0.79551300  1.0
