# generated using pymatgen
data_Mg2MnN3
_symmetry_space_group_name_H-M   'P 1'
_cell_length_a   4.96584300
_cell_length_b   5.77178834
_cell_length_c   5.77178834
_cell_angle_alpha   119.51975924
_cell_angle_beta   90.00000000
_cell_angle_gamma   90.00000000
_symmetry_Int_Tables_number   1
_chemical_formula_structural   Mg2MnN3
_chemical_formula_sum   'Mg4 Mn2 N6'
_cell_volume   143.95467798
_cell_formula_units_Z   2
loop_
 _symmetry_equiv_pos_site_id
 _symmetry_equiv_pos_as_xyz
  1  'x, y, z'
loop_
 _atom_site_type_symbol
 _atom_site_label
 _atom_site_symmetry_multiplicity
 _atom_site_fract_x
 _atom_site_fract_y
 _atom_site_fract_z
 _atom_site_occupancy
  Mg  Mg0  1  0.47068300  0.99076900  0.66420000  1.0
  Mg  Mg1  1  0.47068300  0.66420000  0.99076900  1.0
  Mg  Mg2  1  0.97068300  0.00923100  0.33580000  1.0
  Mg  Mg3  1  0.97068300  0.33580000  0.00923100  1.0
  Mn  Mn4  1  0.48028100  0.33197900  0.33197900  1.0
  Mn  Mn5  1  0.98028100  0.66802100  0.66802100  1.0
  N  N6  1  0.90181500  0.96606000  0.67003300  1.0
  N  N7  1  0.90181500  0.67003300  0.96606000  1.0
  N  N8  1  0.40181500  0.03394000  0.32996700  1.0
  N  N9  1  0.40181500  0.32996700  0.03394000  1.0
  N  N10  1  0.84672200  0.37552100  0.37552100  1.0
  N  N11  1  0.34672200  0.62447900  0.62447900  1.0
