# generated using pymatgen
data_Mg2TaMoO6
_symmetry_space_group_name_H-M   'P 1'
_cell_length_a   5.34384200
_cell_length_b   5.46176915
_cell_length_c   7.74334400
_cell_angle_alpha   90.00000000
_cell_angle_beta   90.00000000
_cell_angle_gamma   91.36599179
_symmetry_Int_Tables_number   1
_chemical_formula_structural   Mg2TaMoO6
_chemical_formula_sum   'Mg4 Ta2 Mo2 O12'
_cell_volume   225.93944889
_cell_formula_units_Z   2
loop_
 _symmetry_equiv_pos_site_id
 _symmetry_equiv_pos_as_xyz
  1  'x, y, z'
loop_
 _atom_site_type_symbol
 _atom_site_label
 _atom_site_symmetry_multiplicity
 _atom_site_fract_x
 _atom_site_fract_y
 _atom_site_fract_z
 _atom_site_occupancy
  Mg  Mg0  1  0.99413500  0.03489800  0.25000000  1.0
  Mg  Mg1  1  0.50093200  0.54910800  0.25000000  1.0
  Mg  Mg2  1  0.49906800  0.45089200  0.75000000  1.0
  Mg  Mg3  1  0.00586500  0.96510200  0.75000000  1.0
  Ta  Ta4  1  0.00000000  0.50000000  0.00000000  1.0
  Ta  Ta5  1  0.00000000  0.50000000  0.50000000  1.0
  Mo  Mo6  1  0.50000000  0.00000000  1.00000000  1.0
  Mo  Mo7  1  0.50000000  1.00000000  0.50000000  1.0
  O  O8  1  0.84298900  0.18675900  0.56975800  1.0
  O  O9  1  0.31173200  0.33472100  0.43105400  1.0
  O  O10  1  0.15701100  0.81324100  0.43024200  1.0
  O  O11  1  0.68826800  0.66527900  0.93105400  1.0
  O  O12  1  0.12889900  0.57257800  0.75000000  1.0
  O  O13  1  0.68826800  0.66527900  0.56894600  1.0
  O  O14  1  0.31173200  0.33472100  0.06894600  1.0
  O  O15  1  0.84298900  0.18675900  0.93024200  1.0
  O  O16  1  0.63805500  0.90621200  0.25000000  1.0
  O  O17  1  0.15701100  0.81324100  0.06975800  1.0
  O  O18  1  0.36194500  0.09378800  0.75000000  1.0
  O  O19  1  0.87110100  0.42742200  0.25000000  1.0
