# generated using pymatgen
data_Mg5Ag
_symmetry_space_group_name_H-M   'P 1'
_cell_length_a   3.21943600
_cell_length_b   5.86761327
_cell_length_c   7.26668769
_cell_angle_alpha   104.10742419
_cell_angle_beta   90.00000000
_cell_angle_gamma   105.92265564
_symmetry_Int_Tables_number   1
_chemical_formula_structural   Mg5Ag
_chemical_formula_sum   'Mg5 Ag1'
_cell_volume   127.69333630
_cell_formula_units_Z   1
loop_
 _symmetry_equiv_pos_site_id
 _symmetry_equiv_pos_as_xyz
  1  'x, y, z'
loop_
 _atom_site_type_symbol
 _atom_site_label
 _atom_site_symmetry_multiplicity
 _atom_site_fract_x
 _atom_site_fract_y
 _atom_site_fract_z
 _atom_site_occupancy
  Mg  Mg0  1  0.99557500  0.99115000  0.01776600  1.0
  Mg  Mg1  1  0.71854300  0.43708600  0.94377200  1.0
  Mg  Mg2  1  0.33466200  0.66932400  0.67096200  1.0
  Mg  Mg3  1  0.04666000  0.09332000  0.58753000  1.0
  Mg  Mg4  1  0.68113200  0.36226400  0.33482500  1.0
  Ag  Ag5  1  0.39009800  0.78019600  0.27847500  1.0
