# generated using pymatgen
data_Mg5Bi
_symmetry_space_group_name_H-M   'P 1'
_cell_length_a   3.23676400
_cell_length_b   5.53548400
_cell_length_c   8.40030875
_cell_angle_alpha   90.00000000
_cell_angle_beta   101.10791028
_cell_angle_gamma   90.00000000
_symmetry_Int_Tables_number   1
_chemical_formula_structural   Mg5Bi
_chemical_formula_sum   'Mg5 Bi1'
_cell_volume   147.68917609
_cell_formula_units_Z   1
loop_
 _symmetry_equiv_pos_site_id
 _symmetry_equiv_pos_as_xyz
  1  'x, y, z'
loop_
 _atom_site_type_symbol
 _atom_site_label
 _atom_site_symmetry_multiplicity
 _atom_site_fract_x
 _atom_site_fract_y
 _atom_site_fract_z
 _atom_site_occupancy
  Mg  Mg0  1  0.00040500  0.00000000  0.00081000  1.0
  Mg  Mg1  1  0.33458400  0.00000000  0.66916800  1.0
  Mg  Mg2  1  0.66504000  1.00000000  0.33008000  1.0
  Mg  Mg3  1  0.44912100  0.50000000  0.89824200  1.0
  Mg  Mg4  1  0.10692500  0.50000000  0.21385000  1.0
  Bi  Bi5  1  0.77725800  0.50000000  0.55451600  1.0
