# generated using pymatgen
data_Mg5In2
_symmetry_space_group_name_H-M   'P 1'
_cell_length_a   6.21399000
_cell_length_b   7.41797800
_cell_length_c   8.63056257
_cell_angle_alpha   115.45173037
_cell_angle_beta   111.10014247
_cell_angle_gamma   90.00000000
_symmetry_Int_Tables_number   1
_chemical_formula_structural   Mg5In2
_chemical_formula_sum   'Mg10 In4'
_cell_volume   329.43296169
_cell_formula_units_Z   2
loop_
 _symmetry_equiv_pos_site_id
 _symmetry_equiv_pos_as_xyz
  1  'x, y, z'
loop_
 _atom_site_type_symbol
 _atom_site_label
 _atom_site_symmetry_multiplicity
 _atom_site_fract_x
 _atom_site_fract_y
 _atom_site_fract_z
 _atom_site_occupancy
  Mg  Mg0  1  0.58605100  0.92497200  0.17210200  1.0
  Mg  Mg1  1  0.41394900  0.07502800  0.82789800  1.0
  Mg  Mg2  1  0.91394900  0.75287000  0.82789800  1.0
  Mg  Mg3  1  0.08605100  0.24713000  0.17210200  1.0
  Mg  Mg4  1  0.25000000  0.50000000  0.00000000  1.0
  Mg  Mg5  1  0.75000000  0.50000000  0.00000000  1.0
  Mg  Mg6  1  0.01655100  0.26655100  0.53310200  1.0
  Mg  Mg7  1  0.48344900  0.73344900  0.46689800  1.0
  Mg  Mg8  1  0.98344900  0.73344900  0.46689800  1.0
  Mg  Mg9  1  0.51655100  0.26655100  0.53310200  1.0
  In  In10  1  0.62268700  0.35617500  0.24537500  1.0
  In  In11  1  0.37731300  0.64382500  0.75462500  1.0
  In  In12  1  0.87731200  0.11080000  0.75462400  1.0
  In  In13  1  0.12268800  0.88920000  0.24537600  1.0
