# generated using pymatgen
data_MgAl2O4
_symmetry_space_group_name_H-M   'P 1'
_cell_length_a   5.74858007
_cell_length_b   5.74858007
_cell_length_c   5.78746304
_cell_angle_alpha   60.22199375
_cell_angle_beta   60.22199375
_cell_angle_gamma   59.99999927
_symmetry_Int_Tables_number   1
_chemical_formula_structural   MgAl2O4
_chemical_formula_sum   'Mg2 Al4 O8'
_cell_volume   135.68865134
_cell_formula_units_Z   2
loop_
 _symmetry_equiv_pos_site_id
 _symmetry_equiv_pos_as_xyz
  1  'x, y, z'
loop_
 _atom_site_type_symbol
 _atom_site_label
 _atom_site_symmetry_multiplicity
 _atom_site_fract_x
 _atom_site_fract_y
 _atom_site_fract_z
 _atom_site_occupancy
  Mg  Mg0  1  0.62202200  0.62202200  0.13393400  1.0
  Mg  Mg1  1  0.99866500  0.99866500  0.00400500  1.0
  Al  Al2  1  0.51042700  0.99644300  0.49668700  1.0
  Al  Al3  1  0.99644300  0.99644300  0.49668700  1.0
  Al  Al4  1  0.99644300  0.51042700  0.49668700  1.0
  Al  Al5  1  0.38029000  0.38029000  0.85913000  1.0
  O  O6  1  0.75256200  0.75256200  0.28286600  1.0
  O  O7  1  0.21201000  0.75256200  0.28286600  1.0
  O  O8  1  0.75256200  0.21201000  0.28286600  1.0
  O  O9  1  0.76013500  0.76013500  0.71959500  1.0
  O  O10  1  0.24584700  0.24584700  0.26245900  1.0
  O  O11  1  0.25108900  0.77041700  0.72740500  1.0
  O  O12  1  0.77041700  0.25108900  0.72740500  1.0
  O  O13  1  0.25108900  0.25108900  0.72740500  1.0
