# generated using pymatgen
data_MgCu5
_symmetry_space_group_name_H-M   'P 1'
_cell_length_a   4.54820842
_cell_length_b   4.54820642
_cell_length_c   5.01825710
_cell_angle_alpha   63.05300735
_cell_angle_beta   63.05302013
_cell_angle_gamma   60.00000844
_symmetry_Int_Tables_number   1
_chemical_formula_structural   MgCu5
_chemical_formula_sum   'Mg1 Cu5'
_cell_volume   76.61053568
_cell_formula_units_Z   1
loop_
 _symmetry_equiv_pos_site_id
 _symmetry_equiv_pos_as_xyz
  1  'x, y, z'
loop_
 _atom_site_type_symbol
 _atom_site_label
 _atom_site_symmetry_multiplicity
 _atom_site_fract_x
 _atom_site_fract_y
 _atom_site_fract_z
 _atom_site_occupancy
  Mg  Mg0  1  0.49999900  0.83333300  0.50000000  1.0
  Cu  Cu1  1  0.32335400  0.33333400  1.00000000  1.0
  Cu  Cu2  1  0.67664500  0.65668833  0.00000000  1.0
  Cu  Cu3  1  0.99999900  0.00997900  1.00000000  1.0
  Cu  Cu4  1  0.83139500  0.16473000  0.50581200  1.0
  Cu  Cu5  1  0.16860400  0.50193700  0.49418600  1.0
