# generated using pymatgen
data_MgHg3
_symmetry_space_group_name_H-M   'P 1'
_cell_length_a   5.08146200
_cell_length_b   5.08146184
_cell_length_c   9.06671300
_cell_angle_alpha   90.00000000
_cell_angle_beta   90.00000000
_cell_angle_gamma   120.00000101
_symmetry_Int_Tables_number   1
_chemical_formula_structural   MgHg3
_chemical_formula_sum   'Mg2 Hg6'
_cell_volume   202.74859172
_cell_formula_units_Z   2
loop_
 _symmetry_equiv_pos_site_id
 _symmetry_equiv_pos_as_xyz
  1  'x, y, z'
loop_
 _atom_site_type_symbol
 _atom_site_label
 _atom_site_symmetry_multiplicity
 _atom_site_fract_x
 _atom_site_fract_y
 _atom_site_fract_z
 _atom_site_occupancy
  Mg  Mg0  1  0.66666667  0.33333333  0.75000000  1.0
  Mg  Mg1  1  0.33333333  0.66666667  0.25000000  1.0
  Hg  Hg2  1  0.66666667  0.33333333  0.42600300  1.0
  Hg  Hg3  1  0.33333333  0.66666667  0.57399700  1.0
  Hg  Hg4  1  0.33333333  0.66666667  0.92600300  1.0
  Hg  Hg5  1  0.66666667  0.33333333  0.07399700  1.0
  Hg  Hg6  1  0.00000000  0.00000000  0.75000000  1.0
  Hg  Hg7  1  0.00000000  0.00000000  0.25000000  1.0
