# generated using pymatgen
data_MgIn2Ga2CuO8
_symmetry_space_group_name_H-M   'P 1'
_cell_length_a   3.37064400
_cell_length_b   5.89435100
_cell_length_c   8.68390393
_cell_angle_alpha   103.34746429
_cell_angle_beta   90.00000000
_cell_angle_gamma   90.00000000
_symmetry_Int_Tables_number   1
_chemical_formula_structural   MgIn2Ga2CuO8
_chemical_formula_sum   'Mg1 In2 Ga2 Cu1 O8'
_cell_volume   167.86933026
_cell_formula_units_Z   1
loop_
 _symmetry_equiv_pos_site_id
 _symmetry_equiv_pos_as_xyz
  1  'x, y, z'
loop_
 _atom_site_type_symbol
 _atom_site_label
 _atom_site_symmetry_multiplicity
 _atom_site_fract_x
 _atom_site_fract_y
 _atom_site_fract_z
 _atom_site_occupancy
  Mg  Mg0  1  0.50000000  0.28417100  0.35747700  1.0
  In  In1  1  0.00000000  0.00082400  0.99897100  1.0
  In  In2  1  0.50000000  0.49868500  0.99824500  1.0
  Ga  Ga3  1  0.00000000  0.21139300  0.64189700  1.0
  Ga  Ga4  1  0.00000000  0.79449700  0.36229500  1.0
  Cu  Cu5  1  0.50000000  0.71348900  0.64276800  1.0
  O  O6  1  0.50000000  0.63982500  0.39021500  1.0
  O  O7  1  0.00000000  0.12039000  0.38669400  1.0
  O  O8  1  0.50000000  0.35434500  0.61379600  1.0
  O  O9  1  1.00000000  0.88269900  0.60988200  1.0
  O  O10  1  0.50000000  0.78858400  0.87620200  1.0
  O  O11  1  0.00000000  0.29332200  0.87090900  1.0
  O  O12  1  0.50000000  0.21015900  0.11957000  1.0
  O  O13  1  0.00000000  0.70761600  0.13107800  1.0
