# generated using pymatgen
data_MgMn2O4
_symmetry_space_group_name_H-M   'P 1'
_cell_length_a   6.02550200
_cell_length_b   6.06456495
_cell_length_c   6.02519800
_cell_angle_alpha   119.78550063
_cell_angle_beta   90.00000000
_cell_angle_gamma   119.78715528
_symmetry_Int_Tables_number   1
_chemical_formula_structural   MgMn2O4
_chemical_formula_sum   'Mg2 Mn4 O8'
_cell_volume   156.68610980
_cell_formula_units_Z   2
loop_
 _symmetry_equiv_pos_site_id
 _symmetry_equiv_pos_as_xyz
  1  'x, y, z'
loop_
 _atom_site_type_symbol
 _atom_site_label
 _atom_site_symmetry_multiplicity
 _atom_site_fract_x
 _atom_site_fract_y
 _atom_site_fract_z
 _atom_site_occupancy
  Mg  Mg0  1  0.00000000  0.50000000  0.50000000  1.0
  Mg  Mg1  1  0.00000000  0.50000000  1.00000000  1.0
  Mn  Mn2  1  0.38736200  0.27472400  0.13736200  1.0
  Mn  Mn3  1  0.61263800  0.72527600  0.86263800  1.0
  Mn  Mn4  1  0.50000000  0.00000000  0.50000000  1.0
  Mn  Mn5  1  0.00000000  1.00000000  0.50000000  1.0
  O  O6  1  0.74500800  0.45017800  0.72508900  1.0
  O  O7  1  0.75255500  0.00511000  0.28311700  1.0
  O  O8  1  0.20517000  0.45017800  0.72508900  1.0
  O  O9  1  0.75255500  0.00511000  0.72199300  1.0
  O  O10  1  0.24744500  0.99489000  0.27800700  1.0
  O  O11  1  0.24744500  0.99489000  0.71688300  1.0
  O  O12  1  0.79483000  0.54982200  0.27491100  1.0
  O  O13  1  0.25499200  0.54982200  0.27491100  1.0
