# generated using pymatgen
data_MgSnO3
_symmetry_space_group_name_H-M   'P 1'
_cell_length_a   5.33941818
_cell_length_b   5.33941818
_cell_length_c   5.66371229
_cell_angle_alpha   61.87668360
_cell_angle_beta   61.87668360
_cell_angle_gamma   59.99999779
_symmetry_Int_Tables_number   1
_chemical_formula_structural   MgSnO3
_chemical_formula_sum   'Mg2 Sn2 O6'
_cell_volume   117.30801027
_cell_formula_units_Z   2
loop_
 _symmetry_equiv_pos_site_id
 _symmetry_equiv_pos_as_xyz
  1  'x, y, z'
loop_
 _atom_site_type_symbol
 _atom_site_label
 _atom_site_symmetry_multiplicity
 _atom_site_fract_x
 _atom_site_fract_y
 _atom_site_fract_z
 _atom_site_occupancy
  Mg  Mg0  1  0.35684400  0.35684400  0.92946800  1.0
  Mg  Mg1  1  0.64315600  0.64315600  0.07053200  1.0
  Sn  Sn2  1  0.14698400  0.14698400  0.55904800  1.0
  Sn  Sn3  1  0.85301600  0.85301600  0.44095200  1.0
  O  O4  1  0.75601100  0.44850500  0.74723200  1.0
  O  O5  1  0.04825200  0.75601100  0.74723200  1.0
  O  O6  1  0.55149500  0.95174800  0.25276800  1.0
  O  O7  1  0.44850500  0.04825200  0.74723200  1.0
  O  O8  1  0.95174800  0.24398900  0.25276800  1.0
  O  O9  1  0.24398900  0.55149500  0.25276800  1.0
