# generated using pymatgen
data_MgU(PbO3)2
_symmetry_space_group_name_H-M   'P 1'
_cell_length_a   5.84456200
_cell_length_b   5.87400700
_cell_length_c   8.51268112
_cell_angle_alpha   90.83414403
_cell_angle_beta   90.00000000
_cell_angle_gamma   90.00000000
_symmetry_Int_Tables_number   1
_chemical_formula_structural   MgU(PbO3)2
_chemical_formula_sum   'Mg2 U2 Pb4 O12'
_cell_volume   292.21786870
_cell_formula_units_Z   2
loop_
 _symmetry_equiv_pos_site_id
 _symmetry_equiv_pos_as_xyz
  1  'x, y, z'
loop_
 _atom_site_type_symbol
 _atom_site_label
 _atom_site_symmetry_multiplicity
 _atom_site_fract_x
 _atom_site_fract_y
 _atom_site_fract_z
 _atom_site_occupancy
  Mg  Mg0  1  1.00000000  0.50000000  0.00000000  1.0
  Mg  Mg1  1  0.50000000  0.00000000  0.50000000  1.0
  U  U2  1  0.00000000  0.50000000  0.50000000  1.0
  U  U3  1  0.50000000  1.00000000  1.00000000  1.0
  Pb  Pb4  1  0.97245300  0.02030600  0.73874200  1.0
  Pb  Pb5  1  0.52754700  0.52030600  0.23874200  1.0
  Pb  Pb6  1  0.02754700  0.97969400  0.26125800  1.0
  Pb  Pb7  1  0.47245300  0.47969400  0.76125800  1.0
  O  O8  1  0.51877600  0.05289100  0.74939800  1.0
  O  O9  1  0.98122400  0.55289100  0.24939800  1.0
  O  O10  1  0.48122400  0.94710900  0.25060200  1.0
  O  O11  1  0.01877600  0.44710900  0.75060200  1.0
  O  O12  1  0.69481000  0.69877600  0.98612100  1.0
  O  O13  1  0.80519000  0.19877600  0.48612100  1.0
  O  O14  1  0.30519000  0.30122400  0.01387900  1.0
  O  O15  1  0.19481000  0.80122400  0.51387900  1.0
  O  O16  1  0.78909000  0.19787400  0.02175100  1.0
  O  O17  1  0.71091000  0.69787400  0.52175100  1.0
  O  O18  1  0.21091000  0.80212600  0.97824900  1.0
  O  O19  1  0.28909000  0.30212600  0.47824900  1.0
