# generated using pymatgen
data_MgWO4
_symmetry_space_group_name_H-M   'P 1'
_cell_length_a   4.74247100
_cell_length_b   5.04425288
_cell_length_c   5.75150800
_cell_angle_alpha   90.00000000
_cell_angle_beta   90.00000000
_cell_angle_gamma   91.18339167
_symmetry_Int_Tables_number   1
_chemical_formula_structural   MgWO4
_chemical_formula_sum   'Mg2 W2 O8'
_cell_volume   137.55951092
_cell_formula_units_Z   2
loop_
 _symmetry_equiv_pos_site_id
 _symmetry_equiv_pos_as_xyz
  1  'x, y, z'
loop_
 _atom_site_type_symbol
 _atom_site_label
 _atom_site_symmetry_multiplicity
 _atom_site_fract_x
 _atom_site_fract_y
 _atom_site_fract_z
 _atom_site_occupancy
  Mg  Mg0  1  0.50000000  0.75000000  0.66542700  1.0
  Mg  Mg1  1  0.50000000  0.25000000  0.33457300  1.0
  W  W2  1  0.00000000  0.75000000  0.17523100  1.0
  W  W3  1  0.00000000  0.25000000  0.82476900  1.0
  O  O4  1  0.74083500  0.10039200  0.62437200  1.0
  O  O5  1  0.25916500  0.39960800  0.62437200  1.0
  O  O6  1  0.25916500  0.89960800  0.37562800  1.0
  O  O7  1  0.74083500  0.60039200  0.37562800  1.0
  O  O8  1  0.78391600  0.06680800  0.10919100  1.0
  O  O9  1  0.21608400  0.43319200  0.10919100  1.0
  O  O10  1  0.21608400  0.93319200  0.89080900  1.0
  O  O11  1  0.78391600  0.56680800  0.89080900  1.0
