# generated using pymatgen
data_Mn(GaS2)2
_symmetry_space_group_name_H-M   'P 1'
_cell_length_a   5.45184400
_cell_length_b   5.45184400
_cell_length_c   6.48127720
_cell_angle_alpha   114.87146832
_cell_angle_beta   114.87146833
_cell_angle_gamma   89.99999999
_symmetry_Int_Tables_number   1
_chemical_formula_structural   Mn(GaS2)2
_chemical_formula_sum   'Mn1 Ga2 S4'
_cell_volume   154.85919050
_cell_formula_units_Z   1
loop_
 _symmetry_equiv_pos_site_id
 _symmetry_equiv_pos_as_xyz
  1  'x, y, z'
loop_
 _atom_site_type_symbol
 _atom_site_label
 _atom_site_symmetry_multiplicity
 _atom_site_fract_x
 _atom_site_fract_y
 _atom_site_fract_z
 _atom_site_occupancy
  Mn  Mn0  1  0.50000000  0.50000000  1.00000000  1.0
  Ga  Ga1  1  0.00000000  0.00000000  0.00000000  1.0
  Ga  Ga2  1  0.25000000  0.75000000  0.50000000  1.0
  S  S3  1  0.62959700  0.11357800  0.73750100  1.0
  S  S4  1  0.10790500  0.62392400  0.73750300  1.0
  S  S5  1  0.88642100  0.89209500  0.26249800  1.0
  S  S6  1  0.37607700  0.37040300  0.26249800  1.0
