# generated using pymatgen
data_Mn2FeSbO6
_symmetry_space_group_name_H-M   'P 1'
_cell_length_a   5.24942303
_cell_length_b   5.24942303
_cell_length_c   5.71184542
_cell_angle_alpha   62.64380920
_cell_angle_beta   62.64380917
_cell_angle_gamma   59.99998701
_symmetry_Int_Tables_number   1
_chemical_formula_structural   Mn2FeSbO6
_chemical_formula_sum   'Mn2 Fe1 Sb1 O6'
_cell_volume   115.53929388
_cell_formula_units_Z   1
loop_
 _symmetry_equiv_pos_site_id
 _symmetry_equiv_pos_as_xyz
  1  'x, y, z'
loop_
 _atom_site_type_symbol
 _atom_site_label
 _atom_site_symmetry_multiplicity
 _atom_site_fract_x
 _atom_site_fract_y
 _atom_site_fract_z
 _atom_site_occupancy
  Mn  Mn0  1  0.86329000  0.86328900  0.41013100  1.0
  Mn  Mn1  1  0.13606600  0.13606700  0.59180100  1.0
  Fe  Fe2  1  0.65732500  0.65732400  0.02802600  1.0
  Sb  Sb3  1  0.34324200  0.34324300  0.97027300  1.0
  O  O4  1  0.72164900  0.05320400  0.77051200  1.0
  O  O5  1  0.45463500  0.72164900  0.77051200  1.0
  O  O6  1  0.05320400  0.45463500  0.77051200  1.0
  O  O7  1  0.28480100  0.93786000  0.22941100  1.0
  O  O8  1  0.54792800  0.28480000  0.22941100  1.0
  O  O9  1  0.93786100  0.54792700  0.22941100  1.0
