# generated using pymatgen
data_Mn2O3F
_symmetry_space_group_name_H-M   'P 1'
_cell_length_a   5.43882803
_cell_length_b   5.43882803
_cell_length_c   5.43882803
_cell_angle_alpha   74.40908325
_cell_angle_beta   70.60975229
_cell_angle_gamma   113.53019424
_symmetry_Int_Tables_number   1
_chemical_formula_structural   Mn2O3F
_chemical_formula_sum   'Mn4 O6 F2'
_cell_volume   123.25375672
_cell_formula_units_Z   2
loop_
 _symmetry_equiv_pos_site_id
 _symmetry_equiv_pos_as_xyz
  1  'x, y, z'
loop_
 _atom_site_type_symbol
 _atom_site_label
 _atom_site_symmetry_multiplicity
 _atom_site_fract_x
 _atom_site_fract_y
 _atom_site_fract_z
 _atom_site_occupancy
  Mn  Mn0  1  0.25000000  0.72350900  0.02649100  1.0
  Mn  Mn1  1  0.75000000  0.27649100  0.97350900  1.0
  Mn  Mn2  1  0.50000000  0.50000000  0.50000000  1.0
  Mn  Mn3  1  0.00000000  0.00000000  0.50000000  1.0
  O  O4  1  0.25000000  0.43936500  0.31063500  1.0
  O  O5  1  0.80710300  0.50000000  0.19289700  1.0
  O  O6  1  0.30710300  0.00000000  0.19289700  1.0
  O  O7  1  0.69289700  0.00000000  0.80710300  1.0
  O  O8  1  0.19289700  0.50000000  0.80710300  1.0
  O  O9  1  0.75000000  0.56063500  0.68936500  1.0
  F  F10  1  0.75000000  0.97942000  0.27058000  1.0
  F  F11  1  0.25000000  0.02058000  0.72942000  1.0
