# generated using pymatgen
data_Mn3Cd2O8
_symmetry_space_group_name_H-M   'P 1'
_cell_length_a   5.04138699
_cell_length_b   5.93192220
_cell_length_c   6.20422516
_cell_angle_alpha   118.55845590
_cell_angle_beta   106.33984233
_cell_angle_gamma   90.00000217
_symmetry_Int_Tables_number   1
_chemical_formula_structural   Mn3Cd2O8
_chemical_formula_sum   'Mn3 Cd2 O8'
_cell_volume   154.37775646
_cell_formula_units_Z   1
loop_
 _symmetry_equiv_pos_site_id
 _symmetry_equiv_pos_as_xyz
  1  'x, y, z'
loop_
 _atom_site_type_symbol
 _atom_site_label
 _atom_site_symmetry_multiplicity
 _atom_site_fract_x
 _atom_site_fract_y
 _atom_site_fract_z
 _atom_site_occupancy
  Mn  Mn0  1  0.49999900  0.99999900  0.00000000  1.0
  Mn  Mn1  1  0.00000000  0.74257800  0.00000100  1.0
  Mn  Mn2  1  0.99999900  0.25742400  0.99999900  1.0
  Cd  Cd3  1  0.34308300  0.28055000  0.56109900  1.0
  Cd  Cd4  1  0.65691600  0.71944900  0.43890000  1.0
  O  O5  1  0.95104100  0.60365900  0.20731800  1.0
  O  O6  1  0.04895800  0.39634000  0.79268100  1.0
  O  O7  1  0.89975800  0.09693300  0.19386700  1.0
  O  O8  1  0.10024300  0.90306700  0.80613300  1.0
  O  O9  1  0.61307900  0.11822700  0.79310700  1.0
  O  O10  1  0.61307900  0.67487900  0.79310700  1.0
  O  O11  1  0.38692000  0.32511900  0.20689300  1.0
  O  O12  1  0.38692000  0.88177400  0.20689300  1.0
