# generated using pymatgen
data_Mn3Fe3Ge2
_symmetry_space_group_name_H-M   'P 1'
_cell_length_a   4.13829700
_cell_length_b   5.17710000
_cell_length_c   5.17709990
_cell_angle_alpha   120.00000065
_cell_angle_beta   90.00000000
_cell_angle_gamma   90.00000000
_symmetry_Int_Tables_number   1
_chemical_formula_structural   Mn3Fe3Ge2
_chemical_formula_sum   'Mn3 Fe3 Ge2'
_cell_volume   96.05619615
_cell_formula_units_Z   1
loop_
 _symmetry_equiv_pos_site_id
 _symmetry_equiv_pos_as_xyz
  1  'x, y, z'
loop_
 _atom_site_type_symbol
 _atom_site_label
 _atom_site_symmetry_multiplicity
 _atom_site_fract_x
 _atom_site_fract_y
 _atom_site_fract_z
 _atom_site_occupancy
  Mn  Mn0  1  0.00000000  0.01333500  0.50666800  1.0
  Mn  Mn1  1  0.00000000  0.49333300  0.98666600  1.0
  Mn  Mn2  1  0.00000000  0.49333300  0.50666800  1.0
  Fe  Fe3  1  0.50000000  0.65411800  0.82705900  1.0
  Fe  Fe4  1  0.50000000  0.17294100  0.34588200  1.0
  Fe  Fe5  1  0.50000000  0.17294100  0.82705900  1.0
  Ge  Ge6  1  0.50000000  0.66666667  0.33333333  1.0
  Ge  Ge7  1  0.00000000  0.00000000  0.00000000  1.0
