# generated using pymatgen
data_Mn3ReO6
_symmetry_space_group_name_H-M   'P 1'
_cell_length_a   5.35881325
_cell_length_b   5.45362974
_cell_length_c   7.83092141
_cell_angle_alpha   89.64592545
_cell_angle_beta   89.99630127
_cell_angle_gamma   90.51811152
_symmetry_Int_Tables_number   1
_chemical_formula_structural   Mn3ReO6
_chemical_formula_sum   'Mn6 Re2 O12'
_cell_volume   228.84481908
_cell_formula_units_Z   2
loop_
 _symmetry_equiv_pos_site_id
 _symmetry_equiv_pos_as_xyz
  1  'x, y, z'
loop_
 _atom_site_type_symbol
 _atom_site_label
 _atom_site_symmetry_multiplicity
 _atom_site_fract_x
 _atom_site_fract_y
 _atom_site_fract_z
 _atom_site_occupancy
  Mn  Mn0  1  0.50009200  0.99997300  0.49999000  1.0
  Mn  Mn1  1  0.00001800  0.95458400  0.24429000  1.0
  Mn  Mn2  1  0.00007600  0.04541300  0.75571000  1.0
  Mn  Mn3  1  0.99981600  0.50000500  0.00001600  1.0
  Mn  Mn4  1  0.50457700  0.55105300  0.74045100  1.0
  Mn  Mn5  1  0.49526100  0.44892000  0.25955900  1.0
  Re  Re6  1  0.00000600  0.49999000  0.50001100  1.0
  Re  Re7  1  0.49998900  0.99998500  0.99995900  1.0
  O  O8  1  0.84118300  0.79855600  0.57489200  1.0
  O  O9  1  0.34481600  0.70007200  0.07454100  1.0
  O  O10  1  0.15895700  0.20143300  0.42508200  1.0
  O  O11  1  0.65514900  0.29993700  0.92547100  1.0
  O  O12  1  0.69171200  0.32878900  0.55619600  1.0
  O  O13  1  0.19216000  0.17057900  0.05642700  1.0
  O  O14  1  0.30838100  0.67120300  0.44385000  1.0
  O  O15  1  0.80776400  0.82956400  0.94354900  1.0
  O  O16  1  0.37892900  0.92840700  0.76667600  1.0
  O  O17  1  0.87811800  0.57297800  0.26651700  1.0
  O  O18  1  0.62114300  0.07156000  0.23332400  1.0
  O  O19  1  0.12185200  0.42699900  0.73349100  1.0
