# generated using pymatgen
data_Mn5SnO12
_symmetry_space_group_name_H-M   'P 1'
_cell_length_a   5.16144000
_cell_length_b   5.16405981
_cell_length_c   10.56085996
_cell_angle_alpha   89.97518916
_cell_angle_beta   89.95035313
_cell_angle_gamma   60.01678045
_symmetry_Int_Tables_number   1
_chemical_formula_structural   Mn5SnO12
_chemical_formula_sum   'Mn5 Sn1 O12'
_cell_volume   243.81774469
_cell_formula_units_Z   1
loop_
 _symmetry_equiv_pos_site_id
 _symmetry_equiv_pos_as_xyz
  1  'x, y, z'
loop_
 _atom_site_type_symbol
 _atom_site_label
 _atom_site_symmetry_multiplicity
 _atom_site_fract_x
 _atom_site_fract_y
 _atom_site_fract_z
 _atom_site_occupancy
  Mn  Mn0  1  0.83325300  0.33349400  0.50000000  1.0
  Mn  Mn1  1  0.33333333  0.33333333  1.00000000  1.0
  Mn  Mn2  1  0.66666667  0.66666667  1.00000000  1.0
  Mn  Mn3  1  0.16674700  0.66650600  0.50000000  1.0
  Mn  Mn4  1  0.50000000  1.00000000  0.50000000  1.0
  Sn  Sn5  1  0.00000000  0.00000000  0.00000000  1.0
  O  O6  1  0.64532200  0.35460500  0.09488400  1.0
  O  O7  1  0.00007300  0.35460500  0.90511600  1.0
  O  O8  1  0.50011000  0.66674100  0.41160800  1.0
  O  O9  1  0.16685100  0.33325900  0.41160800  1.0
  O  O10  1  0.83314900  0.66674100  0.58839200  1.0
  O  O11  1  0.16633900  1.00000000  0.58846300  1.0
  O  O12  1  0.49989000  0.33325900  0.58839200  1.0
  O  O13  1  0.99992700  0.64539500  0.09488400  1.0
  O  O14  1  0.35444900  1.00000000  0.09489400  1.0
  O  O15  1  0.35467800  0.64539500  0.90511600  1.0
  O  O16  1  0.64555100  1.00000000  0.90510600  1.0
  O  O17  1  0.83366100  0.00000000  0.41153700  1.0
