# generated using pymatgen
data_MnAlOs2
_symmetry_space_group_name_H-M   'P 1'
_cell_length_a   4.23887793
_cell_length_b   4.23899356
_cell_length_c   4.23896212
_cell_angle_alpha   60.05905249
_cell_angle_beta   60.06013255
_cell_angle_gamma   60.05763480
_symmetry_Int_Tables_number   1
_chemical_formula_structural   MnAlOs2
_chemical_formula_sum   'Mn1 Al1 Os2'
_cell_volume   53.93093585
_cell_formula_units_Z   1
loop_
 _symmetry_equiv_pos_site_id
 _symmetry_equiv_pos_as_xyz
  1  'x, y, z'
loop_
 _atom_site_type_symbol
 _atom_site_label
 _atom_site_symmetry_multiplicity
 _atom_site_fract_x
 _atom_site_fract_y
 _atom_site_fract_z
 _atom_site_occupancy
  Al  Al2  1  0.25000000  0.25000000  0.25000000  1.0
  Mn  Mn0  1  0.75000050  0.75000200  0.74999750  1.0
  Os  Os4  1  0.00002700  0.00003250  0.00002650  1.0
  Os  Os5  1  0.49997300  0.49996800  0.49997300  1.0
