# generated using pymatgen
data_MnBiO3
_symmetry_space_group_name_H-M   'P 1'
_cell_length_a   5.62901617
_cell_length_b   5.62945159
_cell_length_c   9.85563016
_cell_angle_alpha   105.05810765
_cell_angle_beta   91.89234458
_cell_angle_gamma   119.16396708
_symmetry_Int_Tables_number   1
_chemical_formula_structural   MnBiO3
_chemical_formula_sum   'Mn4 Bi4 O12'
_cell_volume   258.59046609
_cell_formula_units_Z   4
loop_
 _symmetry_equiv_pos_site_id
 _symmetry_equiv_pos_as_xyz
  1  'x, y, z'
loop_
 _atom_site_type_symbol
 _atom_site_label
 _atom_site_symmetry_multiplicity
 _atom_site_fract_x
 _atom_site_fract_y
 _atom_site_fract_z
 _atom_site_occupancy
  Mn  Mn0  1  0.21319700  0.21324100  0.00003700  1.0
  Mn  Mn1  1  0.78725900  0.28721900  0.49996100  1.0
  Mn  Mn2  1  0.00062200  0.74970400  0.25002500  1.0
  Mn  Mn3  1  0.49968600  0.75061100  0.74998500  1.0
  Bi  Bi4  1  0.08007800  0.98085200  0.62646400  1.0
  Bi  Bi5  1  0.35438900  0.45364600  0.37352600  1.0
  Bi  Bi6  1  0.91854600  0.51866600  0.87366800  1.0
  Bi  Bi7  1  0.64503900  0.04491800  0.12633400  1.0
  O  O8  1  0.07916100  0.44112800  0.17123000  1.0
  O  O9  1  0.26995900  0.90791500  0.82878400  1.0
  O  O10  1  0.92171700  0.05765100  0.32930700  1.0
  O  O11  1  0.72826700  0.59240000  0.67068300  1.0
  O  O12  1  0.42104000  0.09097500  0.37773900  1.0
  O  O13  1  0.71321400  0.04322500  0.62229500  1.0
  O  O14  1  0.58069800  0.40811800  0.12098500  1.0
  O  O15  1  0.28713900  0.45978400  0.87897600  1.0
  O  O16  1  0.19274500  0.47911600  0.58437000  1.0
  O  O17  1  0.89484900  0.60849400  0.41559200  1.0
  O  O18  1  0.80736500  0.02238100  0.91555200  1.0
  O  O19  1  0.10672800  0.89165700  0.08448700  1.0
