# generated using pymatgen
data_MnBr2
_symmetry_space_group_name_H-M   'P 1'
_cell_length_a   3.87816022
_cell_length_b   3.87816022
_cell_length_c   7.07929403
_cell_angle_alpha   74.10300415
_cell_angle_beta   74.10300415
_cell_angle_gamma   59.99999629
_symmetry_Int_Tables_number   1
_chemical_formula_structural   MnBr2
_chemical_formula_sum   'Mn1 Br2'
_cell_volume   87.47519983
_cell_formula_units_Z   1
loop_
 _symmetry_equiv_pos_site_id
 _symmetry_equiv_pos_as_xyz
  1  'x, y, z'
loop_
 _atom_site_type_symbol
 _atom_site_label
 _atom_site_symmetry_multiplicity
 _atom_site_fract_x
 _atom_site_fract_y
 _atom_site_fract_z
 _atom_site_occupancy
  Mn  Mn0  1  0.00000000  0.00000000  0.00000000  1.0
  Br  Br1  1  0.74186900  0.74186900  0.77439300  1.0
  Br  Br2  1  0.25813100  0.25813100  0.22560700  1.0
