# generated using pymatgen
data_MnCdCu4(SnSe4)2
_symmetry_space_group_name_H-M   'P 1'
_cell_length_a   5.84668800
_cell_length_b   7.11588562
_cell_length_c   10.91340105
_cell_angle_alpha   77.69057328
_cell_angle_beta   74.46259793
_cell_angle_gamma   65.74368014
_symmetry_Int_Tables_number   1
_chemical_formula_structural   MnCdCu4(SnSe4)2
_chemical_formula_sum   'Mn1 Cd1 Cu4 Sn2 Se8'
_cell_volume   396.07343403
_cell_formula_units_Z   1
loop_
 _symmetry_equiv_pos_site_id
 _symmetry_equiv_pos_as_xyz
  1  'x, y, z'
loop_
 _atom_site_type_symbol
 _atom_site_label
 _atom_site_symmetry_multiplicity
 _atom_site_fract_x
 _atom_site_fract_y
 _atom_site_fract_z
 _atom_site_occupancy
  Mn  Mn0  1  0.00013500  0.00000000  1.00000000  1.0
  Cd  Cd1  1  0.00022000  0.50000000  0.50000000  1.0
  Cu  Cu2  1  0.74878700  0.62517900  0.87574400  1.0
  Cu  Cu3  1  0.75128000  0.12479700  0.37432400  1.0
  Cu  Cu4  1  0.24971000  0.37482100  0.12425600  1.0
  Cu  Cu5  1  0.25040100  0.87520300  0.62567600  1.0
  Sn  Sn6  1  0.50013500  0.24826000  0.75182300  1.0
  Sn  Sn7  1  0.50021800  0.75174000  0.24817700  1.0
  Se  Se8  1  0.11261600  0.58571000  0.69927100  1.0
  Se  Se9  1  0.10773800  0.08200700  0.18928000  1.0
  Se  Se10  1  0.62173000  0.32488800  0.94597200  1.0
  Se  Se11  1  0.60124700  0.84165300  0.44366900  1.0
  Se  Se12  1  0.89259000  0.67511200  0.05402800  1.0
  Se  Se13  1  0.88656900  0.15834700  0.55633100  1.0
  Se  Se14  1  0.39759700  0.41429000  0.30072900  1.0
  Se  Se15  1  0.37902500  0.91799300  0.81072000  1.0
