# generated using pymatgen
data_MnGeO3
_symmetry_space_group_name_H-M   'P 1'
_cell_length_a   5.09491200
_cell_length_b   5.09516139
_cell_length_c   5.67289680
_cell_angle_alpha   90.00126219
_cell_angle_beta   116.67904102
_cell_angle_gamma   119.99793521
_symmetry_Int_Tables_number   1
_chemical_formula_structural   MnGeO3
_chemical_formula_sum   'Mn2 Ge2 O6'
_cell_volume   109.05838625
_cell_formula_units_Z   2
loop_
 _symmetry_equiv_pos_site_id
 _symmetry_equiv_pos_as_xyz
  1  'x, y, z'
loop_
 _atom_site_type_symbol
 _atom_site_label
 _atom_site_symmetry_multiplicity
 _atom_site_fract_x
 _atom_site_fract_y
 _atom_site_fract_z
 _atom_site_occupancy
  Mn  Mn0  1  0.27383800  0.63689500  0.91076200  1.0
  Mn  Mn1  1  0.72615500  0.36310200  0.08922600  1.0
  Ge  Ge2  1  0.31408100  0.15703000  0.47109300  1.0
  Ge  Ge3  1  0.68592700  0.84297400  0.52891900  1.0
  O  O4  1  0.16210600  0.20505300  0.72287300  1.0
  O  O5  1  0.51775100  0.95700500  0.72286200  1.0
  O  O6  1  0.76581900  0.56072900  0.72288900  1.0
  O  O7  1  0.83789000  0.79494500  0.27712500  1.0
  O  O8  1  0.48224900  0.04299400  0.27713700  1.0
  O  O9  1  0.23418300  0.43927300  0.27711300  1.0
