# generated using pymatgen
data_MnO2
_symmetry_space_group_name_H-M   'P 1'
_cell_length_a   2.93249400
_cell_length_b   4.66662098
_cell_length_c   6.93761477
_cell_angle_alpha   94.60631485
_cell_angle_beta   102.20132634
_cell_angle_gamma   90.00000000
_symmetry_Int_Tables_number   1
_chemical_formula_structural   MnO2
_chemical_formula_sum   'Mn3 O6'
_cell_volume   92.48176761
_cell_formula_units_Z   3
loop_
 _symmetry_equiv_pos_site_id
 _symmetry_equiv_pos_as_xyz
  1  'x, y, z'
loop_
 _atom_site_type_symbol
 _atom_site_label
 _atom_site_symmetry_multiplicity
 _atom_site_fract_x
 _atom_site_fract_y
 _atom_site_fract_z
 _atom_site_occupancy
  Mn  Mn0  1  0.00000000  0.00000000  0.00000000  1.0
  Mn  Mn1  1  0.65753300  0.53692200  0.31506600  1.0
  Mn  Mn2  1  0.34246700  0.46307800  0.68493400  1.0
  O  O3  1  0.91274900  0.64860600  0.82549800  1.0
  O  O4  1  0.08725100  0.35139400  0.17450200  1.0
  O  O5  1  0.57443600  0.85800100  0.14887200  1.0
  O  O6  1  0.42556400  0.14199900  0.85112800  1.0
  O  O7  1  0.76482300  0.28723700  0.52964600  1.0
  O  O8  1  0.23517700  0.71276300  0.47035400  1.0
