# generated using pymatgen
data_MnOF
_symmetry_space_group_name_H-M   'P 1'
_cell_length_a   4.53620600
_cell_length_b   5.17916400
_cell_length_c   5.70046500
_cell_angle_alpha   89.99993666
_cell_angle_beta   89.99979844
_cell_angle_gamma   90.00005845
_symmetry_Int_Tables_number   1
_chemical_formula_structural   MnOF
_chemical_formula_sum   'Mn4 O4 F4'
_cell_volume   133.92532702
_cell_formula_units_Z   4
loop_
 _symmetry_equiv_pos_site_id
 _symmetry_equiv_pos_as_xyz
  1  'x, y, z'
loop_
 _atom_site_type_symbol
 _atom_site_label
 _atom_site_symmetry_multiplicity
 _atom_site_fract_x
 _atom_site_fract_y
 _atom_site_fract_z
 _atom_site_occupancy
  Mn  Mn0  1  0.01438100  0.72359600  0.15119100  1.0
  Mn  Mn1  1  0.01436600  0.22358900  0.84881700  1.0
  Mn  Mn2  1  0.51437900  0.77641000  0.65119200  1.0
  Mn  Mn3  1  0.51437100  0.27640500  0.34881300  1.0
  O  O4  1  0.22609800  0.90273900  0.88443100  1.0
  O  O5  1  0.22609700  0.40273300  0.11556200  1.0
  O  O6  1  0.72609700  0.09726200  0.61556400  1.0
  O  O7  1  0.72609800  0.59726300  0.38443100  1.0
  F  F8  1  0.25952500  0.46291900  0.61796800  1.0
  F  F9  1  0.25952600  0.96292100  0.38203200  1.0
  F  F10  1  0.75952600  0.53708200  0.88203100  1.0
  F  F11  1  0.75953100  0.03708100  0.11796800  1.0
