# generated using pymatgen
data_MnOF
_symmetry_space_group_name_H-M   'P 1'
_cell_length_a   3.04046950
_cell_length_b   4.82520503
_cell_length_c   4.82519630
_cell_angle_alpha   80.41975257
_cell_angle_beta   90.00027948
_cell_angle_gamma   90.00015246
_symmetry_Int_Tables_number   1
_chemical_formula_structural   MnOF
_chemical_formula_sum   'Mn2 O2 F2'
_cell_volume   69.80264438
_cell_formula_units_Z   2
loop_
 _symmetry_equiv_pos_site_id
 _symmetry_equiv_pos_as_xyz
  1  'x, y, z'
loop_
 _atom_site_type_symbol
 _atom_site_label
 _atom_site_symmetry_multiplicity
 _atom_site_fract_x
 _atom_site_fract_y
 _atom_site_fract_z
 _atom_site_occupancy
  F  F8  1  0.49999900  0.81350500  0.81350400  1.0
  F  F10  1  0.49999900  0.18649600  0.18649500  1.0
  Mn  Mn0  1  0.50000400  0.49999650  0.50000350  1.0
  Mn  Mn1  1  0.99999900  1.00000000  0.99999900  1.0
  O  O4  1  0.99999900  0.30328300  0.69671700  1.0
  O  O6  1  0.99999900  0.69671800  0.30328200  1.0
