# generated using pymatgen
data_MnPd3
_symmetry_space_group_name_H-M   'P 1'
_cell_length_a   4.52946200
_cell_length_b   5.58514800
_cell_length_c   5.58514796
_cell_angle_alpha   120.00000027
_cell_angle_beta   90.00000000
_cell_angle_gamma   90.00000000
_symmetry_Int_Tables_number   1
_chemical_formula_structural   MnPd3
_chemical_formula_sum   'Mn2 Pd6'
_cell_volume   122.36201499
_cell_formula_units_Z   2
loop_
 _symmetry_equiv_pos_site_id
 _symmetry_equiv_pos_as_xyz
  1  'x, y, z'
loop_
 _atom_site_type_symbol
 _atom_site_label
 _atom_site_symmetry_multiplicity
 _atom_site_fract_x
 _atom_site_fract_y
 _atom_site_fract_z
 _atom_site_occupancy
  Mn  Mn0  1  0.75000000  0.33333333  0.66666667  1.0
  Mn  Mn1  1  0.25000000  0.66666667  0.33333333  1.0
  Pd  Pd2  1  0.75000000  0.33570200  0.16785100  1.0
  Pd  Pd3  1  0.75000000  0.83214900  0.16785100  1.0
  Pd  Pd4  1  0.75000000  0.83214900  0.66429800  1.0
  Pd  Pd5  1  0.25000000  0.16785100  0.83214900  1.0
  Pd  Pd6  1  0.25000000  0.66429800  0.83214900  1.0
  Pd  Pd7  1  0.25000000  0.16785100  0.33570200  1.0
