# generated using pymatgen
data_MnPd3
_symmetry_space_group_name_H-M   'P 1'
_cell_length_a   3.93940400
_cell_length_b   3.93940400
_cell_length_c   8.33618212
_cell_angle_alpha   103.66729074
_cell_angle_beta   103.66729075
_cell_angle_gamma   89.99999997
_symmetry_Int_Tables_number   1
_chemical_formula_structural   MnPd3
_chemical_formula_sum   'Mn2 Pd6'
_cell_volume   121.93205868
_cell_formula_units_Z   2
loop_
 _symmetry_equiv_pos_site_id
 _symmetry_equiv_pos_as_xyz
  1  'x, y, z'
loop_
 _atom_site_type_symbol
 _atom_site_label
 _atom_site_symmetry_multiplicity
 _atom_site_fract_x
 _atom_site_fract_y
 _atom_site_fract_z
 _atom_site_occupancy
  Mn  Mn0  1  0.12443700  0.12443700  0.24887400  1.0
  Mn  Mn1  1  0.87556300  0.87556300  0.75112600  1.0
  Pd  Pd2  1  0.37458500  0.37458500  0.74917000  1.0
  Pd  Pd3  1  0.62541500  0.62541500  0.25083000  1.0
  Pd  Pd4  1  1.00000000  0.50000000  1.00000000  1.0
  Pd  Pd5  1  0.50000000  0.00000000  0.00000000  1.0
  Pd  Pd6  1  0.25000000  0.75000000  0.50000000  1.0
  Pd  Pd7  1  0.75000000  0.25000000  0.50000000  1.0
