# generated using pymatgen
data_MnSnO3
_symmetry_space_group_name_H-M   'P 1'
_cell_length_a   5.45773923
_cell_length_b   5.45769181
_cell_length_c   5.71570121
_cell_angle_alpha   118.50927290
_cell_angle_beta   118.50998091
_cell_angle_gamma   60.01609155
_symmetry_Int_Tables_number   1
_chemical_formula_structural   MnSnO3
_chemical_formula_sum   'Mn2 Sn2 O6'
_cell_volume   123.04270432
_cell_formula_units_Z   2
loop_
 _symmetry_equiv_pos_site_id
 _symmetry_equiv_pos_as_xyz
  1  'x, y, z'
loop_
 _atom_site_type_symbol
 _atom_site_label
 _atom_site_symmetry_multiplicity
 _atom_site_fract_x
 _atom_site_fract_y
 _atom_site_fract_z
 _atom_site_occupancy
  Mn  Mn0  1  0.86407000  0.86408200  0.59219200  1.0
  Mn  Mn1  1  0.36385800  0.36384200  0.09152300  1.0
  Sn  Sn2  1  0.14771400  0.14772600  0.44304600  1.0
  Sn  Sn3  1  0.64777200  0.64778400  0.94312800  1.0
  O  O4  1  0.03114100  0.77117300  0.23840200  1.0
  O  O5  1  0.43591100  0.03118300  0.23808900  1.0
  O  O6  1  0.77113000  0.43593500  0.23842000  1.0
  O  O7  1  0.27129200  0.53108200  0.73849600  1.0
  O  O8  1  0.53113200  0.93594600  0.73819100  1.0
  O  O9  1  0.93597900  0.27124700  0.73851500  1.0
