# generated using pymatgen
data_MnZnO3
_symmetry_space_group_name_H-M   'P 1'
_cell_length_a   5.05241411
_cell_length_b   5.05241435
_cell_length_c   5.49371145
_cell_angle_alpha   62.62347109
_cell_angle_beta   62.62346625
_cell_angle_gamma   59.99999525
_symmetry_Int_Tables_number   1
_chemical_formula_structural   MnZnO3
_chemical_formula_sum   'Mn2 Zn2 O6'
_cell_volume   102.91461463
_cell_formula_units_Z   2
loop_
 _symmetry_equiv_pos_site_id
 _symmetry_equiv_pos_as_xyz
  1  'x, y, z'
loop_
 _atom_site_type_symbol
 _atom_site_label
 _atom_site_symmetry_multiplicity
 _atom_site_fract_x
 _atom_site_fract_y
 _atom_site_fract_z
 _atom_site_occupancy
  Mn  Mn0  1  0.34101700  0.34101700  0.97694900  1.0
  Mn  Mn1  1  0.65898300  0.65898300  0.02305100  1.0
  Zn  Zn2  1  0.13313200  0.13313200  0.60060400  1.0
  Zn  Zn3  1  0.86686800  0.86686800  0.39939600  1.0
  O  O4  1  0.71809200  0.06149400  0.76760000  1.0
  O  O5  1  0.06149400  0.45281400  0.76760000  1.0
  O  O6  1  0.45281400  0.71809200  0.76760000  1.0
  O  O7  1  0.54718600  0.28190800  0.23240000  1.0
  O  O8  1  0.93850600  0.54718600  0.23240000  1.0
  O  O9  1  0.28190800  0.93850600  0.23240000  1.0
