# generated using pymatgen
data_Mo2Se3S
_symmetry_space_group_name_H-M   'P 1'
_cell_length_a   3.28983400
_cell_length_b   3.28983329
_cell_length_c   37.29562900
_cell_angle_alpha   90.00000000
_cell_angle_beta   90.00000000
_cell_angle_gamma   120.00000712
_symmetry_Int_Tables_number   1
_chemical_formula_structural   Mo2Se3S
_chemical_formula_sum   'Mo4 Se6 S2'
_cell_volume   349.57181705
_cell_formula_units_Z   2
loop_
 _symmetry_equiv_pos_site_id
 _symmetry_equiv_pos_as_xyz
  1  'x, y, z'
loop_
 _atom_site_type_symbol
 _atom_site_label
 _atom_site_symmetry_multiplicity
 _atom_site_fract_x
 _atom_site_fract_y
 _atom_site_fract_z
 _atom_site_occupancy
  Mo  Mo0  1  0.00000000  0.00000000  0.90608700  1.0
  Mo  Mo1  1  0.00000000  0.00000000  0.53035200  1.0
  Mo  Mo2  1  0.66666667  0.33333333  0.71820500  1.0
  Mo  Mo3  1  0.66666667  0.33333333  0.34244700  1.0
  Se  Se4  1  0.00000000  0.00000000  0.67302800  1.0
  Se  Se5  1  0.00000000  0.00000000  0.29728400  1.0
  Se  Se6  1  0.66666667  0.33333333  0.57552200  1.0
  Se  Se7  1  0.66666667  0.33333333  0.48515100  1.0
  Se  Se8  1  0.00000000  0.00000000  0.76338200  1.0
  Se  Se9  1  0.00000000  0.00000000  0.38764800  1.0
  S  S10  1  0.66666667  0.33333333  0.94716600  1.0
  S  S11  1  0.66666667  0.33333333  0.86497900  1.0
