# generated using pymatgen
data_Mo2WS6
_symmetry_space_group_name_H-M   'P 1'
_cell_length_a   3.18786600
_cell_length_b   3.18786692
_cell_length_c   29.10050000
_cell_angle_alpha   90.00000000
_cell_angle_beta   90.00000000
_cell_angle_gamma   119.99999047
_symmetry_Int_Tables_number   1
_chemical_formula_structural   Mo2WS6
_chemical_formula_sum   'Mo2 W1 S6'
_cell_volume   256.11284804
_cell_formula_units_Z   1
loop_
 _symmetry_equiv_pos_site_id
 _symmetry_equiv_pos_as_xyz
  1  'x, y, z'
loop_
 _atom_site_type_symbol
 _atom_site_label
 _atom_site_symmetry_multiplicity
 _atom_site_fract_x
 _atom_site_fract_y
 _atom_site_fract_z
 _atom_site_occupancy
  Mo  Mo0  1  0.00000000  0.00000000  0.88434000  1.0
  Mo  Mo1  1  0.66666667  0.33333333  0.65301800  1.0
  W  W2  1  0.00000000  0.00000000  0.42169200  1.0
  S  S3  1  0.00000000  0.00000000  0.59916800  1.0
  S  S4  1  0.66666667  0.33333333  0.93822800  1.0
  S  S5  1  0.66666667  0.33333333  0.47577100  1.0
  S  S6  1  0.66666667  0.33333333  0.83048200  1.0
  S  S7  1  0.66666667  0.33333333  0.36758600  1.0
  S  S8  1  0.00000000  0.00000000  0.70687200  1.0
