# generated using pymatgen
data_Mo3W(SeS)4
_symmetry_space_group_name_H-M   'P 1'
_cell_length_a   3.25649200
_cell_length_b   3.25649217
_cell_length_c   36.85964700
_cell_angle_alpha   90.00000000
_cell_angle_beta   90.00000000
_cell_angle_gamma   119.99999824
_symmetry_Int_Tables_number   1
_chemical_formula_structural   Mo3W(SeS)4
_chemical_formula_sum   'Mo3 W1 Se4 S4'
_cell_volume   338.51807653
_cell_formula_units_Z   1
loop_
 _symmetry_equiv_pos_site_id
 _symmetry_equiv_pos_as_xyz
  1  'x, y, z'
loop_
 _atom_site_type_symbol
 _atom_site_label
 _atom_site_symmetry_multiplicity
 _atom_site_fract_x
 _atom_site_fract_y
 _atom_site_fract_z
 _atom_site_occupancy
  Mo  Mo0  1  0.66666667  0.33333333  0.90608700  1.0
  Mo  Mo1  1  0.66666667  0.33333333  0.53034500  1.0
  Mo  Mo2  1  0.33333333  0.66666667  0.34245100  1.0
  W  W3  1  0.33333333  0.66666667  0.71822800  1.0
  Se  Se4  1  0.66666667  0.33333333  0.67189000  1.0
  Se  Se5  1  0.66666667  0.33333333  0.29639400  1.0
  Se  Se6  1  0.66666667  0.33333333  0.76453900  1.0
  Se  Se7  1  0.66666667  0.33333333  0.38849500  1.0
  S  S8  1  0.33333333  0.66666667  0.94794800  1.0
  S  S9  1  0.33333333  0.66666667  0.57218500  1.0
  S  S10  1  0.33333333  0.66666667  0.86421000  1.0
  S  S11  1  0.33333333  0.66666667  0.48848000  1.0
