# generated using pymatgen
data_Mo3W(SeS3)2
_symmetry_space_group_name_H-M   'P 1'
_cell_length_a   3.22119200
_cell_length_b   3.22119191
_cell_length_c   36.35981100
_cell_angle_alpha   90.00000000
_cell_angle_beta   90.00000000
_cell_angle_gamma   120.00000091
_symmetry_Int_Tables_number   1
_chemical_formula_structural   Mo3W(SeS3)2
_chemical_formula_sum   'Mo3 W1 Se2 S6'
_cell_volume   326.72732427
_cell_formula_units_Z   1
loop_
 _symmetry_equiv_pos_site_id
 _symmetry_equiv_pos_as_xyz
  1  'x, y, z'
loop_
 _atom_site_type_symbol
 _atom_site_label
 _atom_site_symmetry_multiplicity
 _atom_site_fract_x
 _atom_site_fract_y
 _atom_site_fract_z
 _atom_site_occupancy
  Mo  Mo0  1  0.66666667  0.33333333  0.90607800  1.0
  Mo  Mo1  1  0.66666667  0.33333333  0.53035900  1.0
  Mo  Mo2  1  0.33333333  0.66666667  0.71822900  1.0
  W  W3  1  0.33333333  0.66666667  0.34243700  1.0
  Se  Se4  1  0.33333333  0.66666667  0.57735900  1.0
  Se  Se5  1  0.33333333  0.66666667  0.48332300  1.0
  S  S6  1  0.66666667  0.33333333  0.67549400  1.0
  S  S7  1  0.66666667  0.33333333  0.29952300  1.0
  S  S8  1  0.33333333  0.66666667  0.94883400  1.0
  S  S9  1  0.33333333  0.66666667  0.86333200  1.0
  S  S10  1  0.66666667  0.33333333  0.76093500  1.0
  S  S11  1  0.66666667  0.33333333  0.38535100  1.0
