# generated using pymatgen
data_MoSeS
_symmetry_space_group_name_H-M   'P 1'
_cell_length_a   3.25627200
_cell_length_b   3.25627176
_cell_length_c   36.45187000
_cell_angle_alpha   90.00000000
_cell_angle_beta   90.00000000
_cell_angle_gamma   120.00000241
_symmetry_Int_Tables_number   1
_chemical_formula_structural   MoSeS
_chemical_formula_sum   'Mo4 Se4 S4'
_cell_volume   334.72777536
_cell_formula_units_Z   4
loop_
 _symmetry_equiv_pos_site_id
 _symmetry_equiv_pos_as_xyz
  1  'x, y, z'
loop_
 _atom_site_type_symbol
 _atom_site_label
 _atom_site_symmetry_multiplicity
 _atom_site_fract_x
 _atom_site_fract_y
 _atom_site_fract_z
 _atom_site_occupancy
  Mo  Mo0  1  0.00000000  0.00000000  0.90606700  1.0
  Mo  Mo1  1  0.00000000  0.00000000  0.53038900  1.0
  Mo  Mo2  1  0.66666667  0.33333333  0.71820300  1.0
  Mo  Mo3  1  0.66666667  0.33333333  0.34243900  1.0
  Se  Se4  1  0.00000000  0.00000000  0.29586500  1.0
  Se  Se5  1  0.66666667  0.33333333  0.57690500  1.0
  Se  Se6  1  0.66666667  0.33333333  0.48380900  1.0
  Se  Se7  1  0.00000000  0.00000000  0.38899300  1.0
  S  S8  1  0.00000000  0.00000000  0.67586400  1.0
  S  S9  1  0.66666667  0.33333333  0.94845300  1.0
  S  S10  1  0.66666667  0.33333333  0.86370700  1.0
  S  S11  1  0.00000000  0.00000000  0.76056000  1.0
