# generated using pymatgen
data_MoW3(Se3S)2
_symmetry_space_group_name_H-M   'P 1'
_cell_length_a   3.28976400
_cell_length_b   3.28976296
_cell_length_c   37.89392700
_cell_angle_alpha   90.00000000
_cell_angle_beta   90.00000000
_cell_angle_gamma   120.00001042
_symmetry_Int_Tables_number   1
_chemical_formula_structural   MoW3(Se3S)2
_chemical_formula_sum   'Mo1 W3 Se6 S2'
_cell_volume   355.16450008
_cell_formula_units_Z   1
loop_
 _symmetry_equiv_pos_site_id
 _symmetry_equiv_pos_as_xyz
  1  'x, y, z'
loop_
 _atom_site_type_symbol
 _atom_site_label
 _atom_site_symmetry_multiplicity
 _atom_site_fract_x
 _atom_site_fract_y
 _atom_site_fract_z
 _atom_site_occupancy
  Mo  Mo0  1  0.33333333  0.66666667  0.71820100  1.0
  W  W1  1  0.66666667  0.33333333  0.90610700  1.0
  W  W2  1  0.66666667  0.33333333  0.53033300  1.0
  W  W3  1  0.33333333  0.66666667  0.34246500  1.0
  Se  Se4  1  0.66666667  0.33333333  0.67370100  1.0
  Se  Se5  1  0.66666667  0.33333333  0.29772500  1.0
  Se  Se6  1  0.33333333  0.66666667  0.95080900  1.0
  Se  Se7  1  0.33333333  0.66666667  0.86134300  1.0
  Se  Se8  1  0.66666667  0.33333333  0.76268500  1.0
  Se  Se9  1  0.66666667  0.33333333  0.38720800  1.0
  S  S10  1  0.33333333  0.66666667  0.57097800  1.0
  S  S11  1  0.33333333  0.66666667  0.48969500  1.0
