# generated using pymatgen
data_MoWSeS3
_symmetry_space_group_name_H-M   'P 1'
_cell_length_a   3.21985200
_cell_length_b   3.21985146
_cell_length_c   36.38393500
_cell_angle_alpha   90.00000000
_cell_angle_beta   90.00000000
_cell_angle_gamma   120.00000559
_symmetry_Int_Tables_number   1
_chemical_formula_structural   MoWSeS3
_chemical_formula_sum   'Mo2 W2 Se2 S6'
_cell_volume   326.67208305
_cell_formula_units_Z   2
loop_
 _symmetry_equiv_pos_site_id
 _symmetry_equiv_pos_as_xyz
  1  'x, y, z'
loop_
 _atom_site_type_symbol
 _atom_site_label
 _atom_site_symmetry_multiplicity
 _atom_site_fract_x
 _atom_site_fract_y
 _atom_site_fract_z
 _atom_site_occupancy
  Mo  Mo0  1  0.00000000  0.00000000  0.90608200  1.0
  Mo  Mo1  1  0.66666667  0.33333333  0.34245100  1.0
  W  W2  1  0.00000000  0.00000000  0.53035300  1.0
  W  W3  1  0.66666667  0.33333333  0.71820400  1.0
  Se  Se4  1  0.00000000  0.00000000  0.29539600  1.0
  Se  Se5  1  0.00000000  0.00000000  0.38949800  1.0
  S  S6  1  0.00000000  0.00000000  0.67525500  1.0
  S  S7  1  0.66666667  0.33333333  0.94889600  1.0
  S  S8  1  0.66666667  0.33333333  0.57329400  1.0
  S  S9  1  0.66666667  0.33333333  0.86326800  1.0
  S  S10  1  0.66666667  0.33333333  0.48739800  1.0
  S  S11  1  0.00000000  0.00000000  0.76115500  1.0
