# generated using pymatgen
data_Na(CoO2)3
_symmetry_space_group_name_H-M   'P 1'
_cell_length_a   4.89177095
_cell_length_b   4.89617207
_cell_length_c   5.87911318
_cell_angle_alpha   81.85459416
_cell_angle_beta   73.52319405
_cell_angle_gamma   60.02996983
_symmetry_Int_Tables_number   1
_chemical_formula_structural   Na(CoO2)3
_chemical_formula_sum   'Na1 Co3 O6'
_cell_volume   116.97291605
_cell_formula_units_Z   1
loop_
 _symmetry_equiv_pos_site_id
 _symmetry_equiv_pos_as_xyz
  1  'x, y, z'
loop_
 _atom_site_type_symbol
 _atom_site_label
 _atom_site_symmetry_multiplicity
 _atom_site_fract_x
 _atom_site_fract_y
 _atom_site_fract_z
 _atom_site_occupancy
  Co  Co2  1  0.66666633  0.66666733  0.00000000  1.0
  Co  Co3  1  0.33384850  0.33230300  0.00000000  1.0
  Co  Co4  1  0.99946850  0.00106300  0.00000000  1.0
  Na  Na0  1  0.16667683  0.66664533  0.50000000  1.0
  O  O8  1  0.38635883  0.66666933  0.82768500  1.0
  O  O10  1  0.94697133  0.66666933  0.17231550  1.0
  O  O12  1  0.72708050  0.00143600  0.82838650  1.0
  O  O14  1  0.06184400  0.33190200  0.82839650  1.0
  O  O16  1  0.60625450  0.33190000  0.17160400  1.0
  O  O18  1  0.27148600  0.00143400  0.17161250  1.0
