# generated using pymatgen
data_Na2BrClO6
_symmetry_space_group_name_H-M   'P 1'
_cell_length_a   6.74405700
_cell_length_b   6.74877700
_cell_length_c   6.74904309
_cell_angle_alpha   91.05730429
_cell_angle_beta   90.00000000
_cell_angle_gamma   90.00000000
_symmetry_Int_Tables_number   1
_chemical_formula_structural   Na2BrClO6
_chemical_formula_sum   'Na4 Br2 Cl2 O12'
_cell_volume   307.12457035
_cell_formula_units_Z   2
loop_
 _symmetry_equiv_pos_site_id
 _symmetry_equiv_pos_as_xyz
  1  'x, y, z'
loop_
 _atom_site_type_symbol
 _atom_site_label
 _atom_site_symmetry_multiplicity
 _atom_site_fract_x
 _atom_site_fract_y
 _atom_site_fract_z
 _atom_site_occupancy
  Na  Na0  1  0.42631200  0.57292200  0.82010500  1.0
  Na  Na1  1  0.92631200  0.42707800  0.17989500  1.0
  Na  Na2  1  0.57393700  0.92507300  0.32715900  1.0
  Na  Na3  1  0.07393700  0.07492700  0.67284100  1.0
  Br  Br4  1  0.09100900  0.90797200  0.15765500  1.0
  Br  Br5  1  0.59100900  0.09202800  0.84234500  1.0
  Cl  Cl6  1  0.91644400  0.58236800  0.66788900  1.0
  Cl  Cl7  1  0.41644400  0.41763200  0.33211100  1.0
  O  O8  1  0.99017400  0.10296600  0.03970100  1.0
  O  O9  1  0.89583200  0.78759300  0.25465900  1.0
  O  O10  1  0.21227100  0.00821300  0.35354500  1.0
  O  O11  1  0.49017400  0.89703400  0.96029900  1.0
  O  O12  1  0.39583200  0.21240700  0.74534100  1.0
  O  O13  1  0.71227100  0.99178700  0.64645500  1.0
  O  O14  1  0.00125800  0.40956800  0.55157300  1.0
  O  O15  1  0.08953300  0.69632200  0.75557600  1.0
  O  O16  1  0.80323000  0.49764300  0.84015700  1.0
  O  O17  1  0.50125800  0.59043200  0.44842700  1.0
  O  O18  1  0.58953300  0.30367800  0.24442400  1.0
  O  O19  1  0.30323000  0.50235700  0.15984300  1.0
