# generated using pymatgen
data_Na2Co3O4
_symmetry_space_group_name_H-M   'P 1'
_cell_length_a   5.66491190
_cell_length_b   6.27561400
_cell_length_c   7.58195436
_cell_angle_alpha   65.55295757
_cell_angle_beta   74.23256174
_cell_angle_gamma   90.00000000
_symmetry_Int_Tables_number   1
_chemical_formula_structural   Na2Co3O4
_chemical_formula_sum   'Na4 Co6 O8'
_cell_volume   234.19178964
_cell_formula_units_Z   2
loop_
 _symmetry_equiv_pos_site_id
 _symmetry_equiv_pos_as_xyz
  1  'x, y, z'
loop_
 _atom_site_type_symbol
 _atom_site_label
 _atom_site_symmetry_multiplicity
 _atom_site_fract_x
 _atom_site_fract_y
 _atom_site_fract_z
 _atom_site_occupancy
  Na  Na0  1  0.97561600  0.00007100  0.76155700  1.0
  Na  Na1  1  0.47561600  0.23837200  0.76155700  1.0
  Na  Na2  1  0.52438400  0.76162800  0.23844300  1.0
  Na  Na3  1  0.02438400  0.99992900  0.23844300  1.0
  Co  Co4  1  0.57370500  0.80457100  0.63386100  1.0
  Co  Co5  1  0.07370500  0.56156800  0.63386100  1.0
  Co  Co6  1  0.92629500  0.43843200  0.36613900  1.0
  Co  Co7  1  0.42629500  0.19542900  0.36613900  1.0
  Co  Co8  1  0.75000000  0.48213700  1.00000000  1.0
  Co  Co9  1  0.25000000  0.51786300  1.00000000  1.0
  O  O10  1  0.54421000  0.75503200  0.91711900  1.0
  O  O11  1  0.04421000  0.32784900  0.91711900  1.0
  O  O12  1  0.76915200  0.59816900  0.53974400  1.0
  O  O13  1  0.73084800  0.13791300  0.46025600  1.0
  O  O14  1  0.26915200  0.86208700  0.53974400  1.0
  O  O15  1  0.23084800  0.40183100  0.46025600  1.0
  O  O16  1  0.95579000  0.67215100  0.08288100  1.0
  O  O17  1  0.45579000  0.24496800  0.08288100  1.0
