# generated using pymatgen
data_Na2Co2O3
_symmetry_space_group_name_H-M   'P 1'
_cell_length_a   5.87296200
_cell_length_b   5.87869005
_cell_length_c   6.07173882
_cell_angle_alpha   61.35648131
_cell_angle_beta   89.99992541
_cell_angle_gamma   89.99980514
_symmetry_Int_Tables_number   1
_chemical_formula_structural   Na2Co2O3
_chemical_formula_sum   'Na4 Co4 O6'
_cell_volume   183.97419827
_cell_formula_units_Z   2
loop_
 _symmetry_equiv_pos_site_id
 _symmetry_equiv_pos_as_xyz
  1  'x, y, z'
loop_
 _atom_site_type_symbol
 _atom_site_label
 _atom_site_symmetry_multiplicity
 _atom_site_fract_x
 _atom_site_fract_y
 _atom_site_fract_z
 _atom_site_occupancy
  Na  Na0  1  0.65292900  0.14288100  0.09696200  1.0
  Na  Na1  1  0.84707200  0.14289500  0.59696000  1.0
  Na  Na2  1  0.15294200  0.85710200  0.40303100  1.0
  Na  Na3  1  0.34707600  0.85711200  0.90305200  1.0
  Co  Co4  1  0.87538600  0.66092900  0.08042700  1.0
  Co  Co5  1  0.62461100  0.66093000  0.58042600  1.0
  Co  Co6  1  0.37538500  0.33908000  0.41956200  1.0
  Co  Co7  1  0.12461200  0.33907900  0.91956100  1.0
  O  O8  1  0.50000800  0.00000800  0.49998500  1.0
  O  O9  1  0.99998900  0.00000900  0.99998800  1.0
  O  O10  1  0.08759200  0.35838700  0.24796000  1.0
  O  O11  1  0.41240400  0.35838600  0.74796200  1.0
  O  O12  1  0.58760000  0.64160100  0.25205900  1.0
  O  O13  1  0.91239500  0.64160100  0.75206600  1.0
