# generated using pymatgen
data_Na2ThF6
_symmetry_space_group_name_H-M   'P 1'
_cell_length_a   4.11620800
_cell_length_b   5.64187400
_cell_length_c   6.78901566
_cell_angle_alpha   114.55174487
_cell_angle_beta   107.64702118
_cell_angle_gamma   90.00000000
_symmetry_Int_Tables_number   1
_chemical_formula_structural   Na2ThF6
_chemical_formula_sum   'Na2 Th1 F6'
_cell_volume   135.20818007
_cell_formula_units_Z   1
loop_
 _symmetry_equiv_pos_site_id
 _symmetry_equiv_pos_as_xyz
  1  'x, y, z'
loop_
 _atom_site_type_symbol
 _atom_site_label
 _atom_site_symmetry_multiplicity
 _atom_site_fract_x
 _atom_site_fract_y
 _atom_site_fract_z
 _atom_site_occupancy
  Na  Na0  1  0.32710600  0.32710600  0.65421200  1.0
  Na  Na1  1  0.67289400  0.67289400  0.34578800  1.0
  Th  Th2  1  0.00000000  0.00000000  0.00000000  1.0
  F  F3  1  0.50000000  0.22816500  0.00000000  1.0
  F  F4  1  0.84434000  0.60075500  0.68868000  1.0
  F  F5  1  0.15566100  0.91207600  0.31132100  1.0
  F  F6  1  0.50000000  0.77183500  1.00000000  1.0
  F  F7  1  0.84433900  0.08792400  0.68867900  1.0
  F  F8  1  0.15566000  0.39924500  0.31132000  1.0
