# generated using pymatgen
data_Na2U2O7
_symmetry_space_group_name_H-M   'P 1'
_cell_length_a   3.98335000
_cell_length_b   6.49755800
_cell_length_c   6.90841927
_cell_angle_alpha   110.44945515
_cell_angle_beta   90.00000000
_cell_angle_gamma   90.00000000
_symmetry_Int_Tables_number   1
_chemical_formula_structural   Na2U2O7
_chemical_formula_sum   'Na2 U2 O7'
_cell_volume   167.53594383
_cell_formula_units_Z   1
loop_
 _symmetry_equiv_pos_site_id
 _symmetry_equiv_pos_as_xyz
  1  'x, y, z'
loop_
 _atom_site_type_symbol
 _atom_site_label
 _atom_site_symmetry_multiplicity
 _atom_site_fract_x
 _atom_site_fract_y
 _atom_site_fract_z
 _atom_site_occupancy
  Na  Na0  1  1.00000000  0.49087900  0.49850500  1.0
  Na  Na1  1  0.50000000  0.49878800  0.99606300  1.0
  U  U2  1  0.00000000  0.00108500  0.01512700  1.0
  U  U3  1  0.50000000  0.01342500  0.49002400  1.0
  O  O4  1  0.50000000  0.70265600  0.41108300  1.0
  O  O5  1  1.00000000  0.69594000  0.88577800  1.0
  O  O6  1  0.50000000  0.32606900  0.59330400  1.0
  O  O7  1  1.00000000  0.30782700  0.11662100  1.0
  O  O8  1  0.50000000  0.95699000  0.14758800  1.0
  O  O9  1  1.00000000  0.04041300  0.38754900  1.0
  O  O10  1  0.50000000  0.03692800  0.81535800  1.0
