# generated using pymatgen
data_Na3Au
_symmetry_space_group_name_H-M   'P 1'
_cell_length_a   5.36493000
_cell_length_b   6.66715000
_cell_length_c   6.66714977
_cell_angle_alpha   120.00000116
_cell_angle_beta   90.00000000
_cell_angle_gamma   90.00000000
_symmetry_Int_Tables_number   1
_chemical_formula_structural   Na3Au
_chemical_formula_sum   'Na6 Au2'
_cell_volume   206.52618562
_cell_formula_units_Z   2
loop_
 _symmetry_equiv_pos_site_id
 _symmetry_equiv_pos_as_xyz
  1  'x, y, z'
loop_
 _atom_site_type_symbol
 _atom_site_label
 _atom_site_symmetry_multiplicity
 _atom_site_fract_x
 _atom_site_fract_y
 _atom_site_fract_z
 _atom_site_occupancy
  Na  Na0  1  0.75000000  0.82461300  0.17538800  1.0
  Na  Na1  1  0.75000000  0.35077500  0.17538800  1.0
  Na  Na2  1  0.75000000  0.82461300  0.64922600  1.0
  Na  Na3  1  0.25000000  0.17538700  0.82461200  1.0
  Na  Na4  1  0.25000000  0.64922500  0.82461200  1.0
  Na  Na5  1  0.25000000  0.17538700  0.35077400  1.0
  Au  Au6  1  0.25000000  0.66666667  0.33333333  1.0
  Au  Au7  1  0.75000000  0.33333333  0.66666667  1.0
