# generated using pymatgen
data_Na3BiO4
_symmetry_space_group_name_H-M   'P 1'
_cell_length_a   3.35388700
_cell_length_b   5.83593257
_cell_length_c   5.83593257
_cell_angle_alpha   108.37752098
_cell_angle_beta   90.00000000
_cell_angle_gamma   90.00000000
_symmetry_Int_Tables_number   1
_chemical_formula_structural   Na3BiO4
_chemical_formula_sum   'Na3 Bi1 O4'
_cell_volume   108.40144405
_cell_formula_units_Z   1
loop_
 _symmetry_equiv_pos_site_id
 _symmetry_equiv_pos_as_xyz
  1  'x, y, z'
loop_
 _atom_site_type_symbol
 _atom_site_label
 _atom_site_symmetry_multiplicity
 _atom_site_fract_x
 _atom_site_fract_y
 _atom_site_fract_z
 _atom_site_occupancy
  Na  Na0  1  1.00000000  0.00000000  0.50000000  1.0
  Na  Na1  1  0.50000000  0.50000000  0.50000000  1.0
  Na  Na2  1  1.00000000  0.50000000  0.00000000  1.0
  Bi  Bi3  1  0.50000000  0.00000000  0.00000000  1.0
  O  O4  1  0.00000000  0.77826600  0.77826600  1.0
  O  O5  1  0.50000000  0.21910100  0.78089900  1.0
  O  O6  1  1.00000000  0.22173400  0.22173400  1.0
  O  O7  1  0.50000000  0.78089900  0.21910100  1.0
