# generated using pymatgen
data_Na3HfF7
_symmetry_space_group_name_H-M   'P 1'
_cell_length_a   5.48781054
_cell_length_b   5.48781054
_cell_length_c   6.26960454
_cell_angle_alpha   113.25162953
_cell_angle_beta   113.25162953
_cell_angle_gamma   90.85711148
_symmetry_Int_Tables_number   1
_chemical_formula_structural   Na3HfF7
_chemical_formula_sum   'Na3 Hf1 F7'
_cell_volume   156.09336945
_cell_formula_units_Z   1
loop_
 _symmetry_equiv_pos_site_id
 _symmetry_equiv_pos_as_xyz
  1  'x, y, z'
loop_
 _atom_site_type_symbol
 _atom_site_label
 _atom_site_symmetry_multiplicity
 _atom_site_fract_x
 _atom_site_fract_y
 _atom_site_fract_z
 _atom_site_occupancy
  Na  Na0  1  0.76093400  0.22691500  0.49217500  1.0
  Na  Na1  1  0.51386900  0.51386900  0.04397700  1.0
  Na  Na2  1  0.22691500  0.76093400  0.49217500  1.0
  Hf  Hf3  1  0.04733000  0.04733000  0.02825300  1.0
  F  F4  1  0.84729300  0.84729300  0.14767400  1.0
  F  F5  1  0.89895700  0.35213400  0.23285900  1.0
  F  F6  1  0.67472500  0.02478500  0.75343200  1.0
  F  F7  1  0.35213400  0.89895700  0.23285900  1.0
  F  F8  1  0.37445600  0.37445600  0.28601300  1.0
  F  F9  1  0.02478500  0.67472500  0.75343200  1.0
  F  F10  1  0.15360100  0.15360100  0.78714900  1.0
