# generated using pymatgen
data_Na3Mo(OF)3
_symmetry_space_group_name_H-M   'P 1'
_cell_length_a   5.69397275
_cell_length_b   5.69397286
_cell_length_c   5.95290160
_cell_angle_alpha   61.42870883
_cell_angle_beta   61.42870705
_cell_angle_gamma   59.99999613
_symmetry_Int_Tables_number   1
_chemical_formula_structural   Na3Mo(OF)3
_chemical_formula_sum   'Na3 Mo1 O3 F3'
_cell_volume   139.34550759
_cell_formula_units_Z   1
loop_
 _symmetry_equiv_pos_site_id
 _symmetry_equiv_pos_as_xyz
  1  'x, y, z'
loop_
 _atom_site_type_symbol
 _atom_site_label
 _atom_site_symmetry_multiplicity
 _atom_site_fract_x
 _atom_site_fract_y
 _atom_site_fract_z
 _atom_site_occupancy
  Na  Na0  1  0.77342600  0.77342600  0.67972400  1.0
  Na  Na1  1  0.49077300  0.49077300  0.52768100  1.0
  Na  Na2  1  0.27197500  0.27197500  0.18407400  1.0
  Mo  Mo3  1  0.99886300  0.99886300  0.00341100  1.0
  O  O4  1  0.74775000  0.30963200  0.84972000  1.0
  O  O5  1  0.30963200  0.09289800  0.84972100  1.0
  O  O6  1  0.09289800  0.74774900  0.84972000  1.0
  F  F7  1  0.17484000  0.64163200  0.31111600  1.0
  F  F8  1  0.87241200  0.17484000  0.31111700  1.0
  F  F9  1  0.64163100  0.87241100  0.31111700  1.0
