# generated using pymatgen
data_Na3ScCl6
_symmetry_space_group_name_H-M   'P 1'
_cell_length_a   6.78838900
_cell_length_b   7.21559600
_cell_length_c   9.99869042
_cell_angle_alpha   90.00000000
_cell_angle_beta   90.54985065
_cell_angle_gamma   90.00000000
_symmetry_Int_Tables_number   1
_chemical_formula_structural   Na3ScCl6
_chemical_formula_sum   'Na6 Sc2 Cl12'
_cell_volume   489.73602644
_cell_formula_units_Z   2
loop_
 _symmetry_equiv_pos_site_id
 _symmetry_equiv_pos_as_xyz
  1  'x, y, z'
loop_
 _atom_site_type_symbol
 _atom_site_label
 _atom_site_symmetry_multiplicity
 _atom_site_fract_x
 _atom_site_fract_y
 _atom_site_fract_z
 _atom_site_occupancy
  Na  Na0  1  0.52640600  0.07936300  0.24236200  1.0
  Na  Na1  1  0.02640600  0.42063700  0.74236200  1.0
  Na  Na2  1  0.47359400  0.92063700  0.75763800  1.0
  Na  Na3  1  0.97359400  0.57936300  0.25763800  1.0
  Na  Na4  1  0.00000000  1.00000000  0.50000000  1.0
  Na  Na5  1  0.50000000  0.50000000  1.00000000  1.0
  Sc  Sc6  1  0.50000000  0.50000000  0.50000000  1.0
  Sc  Sc7  1  0.00000000  0.00000000  0.00000000  1.0
  Cl  Cl8  1  0.36787900  0.44540700  0.26642600  1.0
  Cl  Cl9  1  0.86787900  0.05459300  0.76642600  1.0
  Cl  Cl10  1  0.63212100  0.55459300  0.73357400  1.0
  Cl  Cl11  1  0.13212100  0.94540700  0.23357400  1.0
  Cl  Cl12  1  0.33546400  0.20518800  0.57404900  1.0
  Cl  Cl13  1  0.83546400  0.29481200  0.07404900  1.0
  Cl  Cl14  1  0.66453600  0.79481200  0.42595100  1.0
  Cl  Cl15  1  0.16453600  0.70518800  0.92595100  1.0
  Cl  Cl16  1  0.80295200  0.32440400  0.43930500  1.0
  Cl  Cl17  1  0.30295200  0.17559600  0.93930500  1.0
  Cl  Cl18  1  0.19704800  0.67559600  0.56069500  1.0
  Cl  Cl19  1  0.69704800  0.82440400  0.06069500  1.0
