# generated using pymatgen
data_Na3ZrF8
_symmetry_space_group_name_H-M   'P 1'
_cell_length_a   5.41298600
_cell_length_b   5.41298600
_cell_length_c   6.63889373
_cell_angle_alpha   114.05869526
_cell_angle_beta   114.05869525
_cell_angle_gamma   90.00000001
_symmetry_Int_Tables_number   1
_chemical_formula_structural   Na3ZrF8
_chemical_formula_sum   'Na3 Zr1 F8'
_cell_volume   158.93876681
_cell_formula_units_Z   1
loop_
 _symmetry_equiv_pos_site_id
 _symmetry_equiv_pos_as_xyz
  1  'x, y, z'
loop_
 _atom_site_type_symbol
 _atom_site_label
 _atom_site_symmetry_multiplicity
 _atom_site_fract_x
 _atom_site_fract_y
 _atom_site_fract_z
 _atom_site_occupancy
  Na  Na0  1  0.50000000  0.50000000  1.00000000  1.0
  Na  Na1  1  0.25000000  0.75000000  0.50000000  1.0
  Na  Na2  1  0.75000000  0.25000000  0.50000000  1.0
  Zr  Zr3  1  0.00000000  0.00000000  0.00000000  1.0
  F  F4  1  0.88563000  0.34465300  0.23028300  1.0
  F  F5  1  0.88563000  0.88563000  0.23028300  1.0
  F  F6  1  0.34465300  0.34465300  0.23028300  1.0
  F  F7  1  0.34465300  0.88563000  0.23028300  1.0
  F  F8  1  0.65534700  0.11437000  0.76971700  1.0
  F  F9  1  0.65534700  0.65534700  0.76971700  1.0
  F  F10  1  0.11437000  0.11437000  0.76971700  1.0
  F  F11  1  0.11437000  0.65534700  0.76971700  1.0
