# generated using pymatgen
data_Na4Al3FeO8
_symmetry_space_group_name_H-M   'P 1'
_cell_length_a   5.33128700
_cell_length_b   5.54082620
_cell_length_c   7.11489469
_cell_angle_alpha   89.97503691
_cell_angle_beta   90.00374461
_cell_angle_gamma   89.98466481
_symmetry_Int_Tables_number   1
_chemical_formula_structural   Na4Al3FeO8
_chemical_formula_sum   'Na4 Al3 Fe1 O8'
_cell_volume   210.17207356
_cell_formula_units_Z   1
loop_
 _symmetry_equiv_pos_site_id
 _symmetry_equiv_pos_as_xyz
  1  'x, y, z'
loop_
 _atom_site_type_symbol
 _atom_site_label
 _atom_site_symmetry_multiplicity
 _atom_site_fract_x
 _atom_site_fract_y
 _atom_site_fract_z
 _atom_site_occupancy
  Na  Na0  1  0.48493700  0.06849000  0.62312300  1.0
  Na  Na1  1  0.98571400  0.92850300  0.37501700  1.0
  Na  Na2  1  0.98692000  0.42654700  0.12289600  1.0
  Na  Na3  1  0.48558800  0.57342200  0.87867200  1.0
  Al  Al4  1  0.50075300  0.56332900  0.36801300  1.0
  Al  Al5  1  0.49865700  0.06258000  0.12573200  1.0
  Al  Al6  1  0.99856000  0.93901900  0.88043200  1.0
  Fe  Fe7  1  0.99895300  0.43852900  0.62621700  1.0
  O  O8  1  0.34808100  0.46893100  0.57784100  1.0
  O  O9  1  0.82938600  0.54036100  0.40751600  1.0
  O  O10  1  0.82612700  0.03940100  0.07933700  1.0
  O  O11  1  0.32617100  0.96973500  0.92407800  1.0
  O  O12  1  0.92480800  0.10719400  0.67361900  1.0
  O  O13  1  0.42705600  0.87299800  0.32210800  1.0
  O  O14  1  0.42564100  0.37180200  0.17379300  1.0
  O  O15  1  0.92464800  0.62915800  0.84160400  1.0
