# generated using pymatgen
data_Na4HgP2
_symmetry_space_group_name_H-M   'P 1'
_cell_length_a   5.02211412
_cell_length_b   5.02211412
_cell_length_c   9.07948288
_cell_angle_alpha   73.94476087
_cell_angle_beta   73.94476087
_cell_angle_gamma   59.99999846
_symmetry_Int_Tables_number   1
_chemical_formula_structural   Na4HgP2
_chemical_formula_sum   'Na4 Hg1 P2'
_cell_volume   187.93473135
_cell_formula_units_Z   1
loop_
 _symmetry_equiv_pos_site_id
 _symmetry_equiv_pos_as_xyz
  1  'x, y, z'
loop_
 _atom_site_type_symbol
 _atom_site_label
 _atom_site_symmetry_multiplicity
 _atom_site_fract_x
 _atom_site_fract_y
 _atom_site_fract_z
 _atom_site_occupancy
  Na  Na0  1  0.79280400  0.79280400  0.62158800  1.0
  Na  Na1  1  0.59719900  0.59719900  0.20840300  1.0
  Na  Na2  1  0.20719600  0.20719600  0.37841200  1.0
  Na  Na3  1  0.40280100  0.40280100  0.79159700  1.0
  Hg  Hg4  1  0.00000000  0.00000000  0.00000000  1.0
  P  P5  1  0.09369900  0.09369900  0.71890300  1.0
  P  P6  1  0.90630100  0.90630100  0.28109700  1.0
