# generated using pymatgen
data_Na4IrO4
_symmetry_space_group_name_H-M   'P 1'
_cell_length_a   4.76657600
_cell_length_b   5.63035669
_cell_length_c   5.63035669
_cell_angle_alpha   79.67819857
_cell_angle_beta   64.95736528
_cell_angle_gamma   64.95736528
_symmetry_Int_Tables_number   1
_chemical_formula_structural   Na4IrO4
_chemical_formula_sum   'Na4 Ir1 O4'
_cell_volume   124.03038188
_cell_formula_units_Z   1
loop_
 _symmetry_equiv_pos_site_id
 _symmetry_equiv_pos_as_xyz
  1  'x, y, z'
loop_
 _atom_site_type_symbol
 _atom_site_label
 _atom_site_symmetry_multiplicity
 _atom_site_fract_x
 _atom_site_fract_y
 _atom_site_fract_z
 _atom_site_occupancy
  Na  Na0  1  0.19731700  0.21010300  0.39526300  1.0
  Na  Na1  1  0.40742000  0.39526300  0.78989700  1.0
  Na  Na2  1  0.80268300  0.78989700  0.60473700  1.0
  Na  Na3  1  0.59258000  0.60473700  0.21010300  1.0
  Ir  Ir4  1  0.00000000  0.00000000  0.00000000  1.0
  O  O5  1  0.74409600  0.17235500  0.33945300  1.0
  O  O6  1  0.25590400  0.82764500  0.66054700  1.0
  O  O7  1  0.08354800  0.66054800  0.17235500  1.0
  O  O8  1  0.91645200  0.33945200  0.82764500  1.0
