# generated using pymatgen
data_Na4UO5
_symmetry_space_group_name_H-M   'P 1'
_cell_length_a   4.65335200
_cell_length_b   5.92066670
_cell_length_c   5.92066670
_cell_angle_alpha   81.11628260
_cell_angle_beta   66.86023920
_cell_angle_gamma   66.86023920
_symmetry_Int_Tables_number   1
_chemical_formula_structural   Na4UO5
_chemical_formula_sum   'Na4 U1 O5'
_cell_volume   137.92941551
_cell_formula_units_Z   1
loop_
 _symmetry_equiv_pos_site_id
 _symmetry_equiv_pos_as_xyz
  1  'x, y, z'
loop_
 _atom_site_type_symbol
 _atom_site_label
 _atom_site_symmetry_multiplicity
 _atom_site_fract_x
 _atom_site_fract_y
 _atom_site_fract_z
 _atom_site_occupancy
  Na  Na0  1  0.19775700  0.19889700  0.40558800  1.0
  Na  Na1  1  0.80224300  0.80110300  0.59441200  1.0
  Na  Na2  1  0.39665400  0.40558800  0.80110400  1.0
  Na  Na3  1  0.60334600  0.59441200  0.19889600  1.0
  U  U4  1  0.00000000  0.00000000  0.00000000  1.0
  O  O5  1  0.50000000  0.00000000  1.00000000  1.0
  O  O6  1  0.25359100  0.82146200  0.67135600  1.0
  O  O7  1  0.74640900  0.17853800  0.32864400  1.0
  O  O8  1  0.07505300  0.67135600  0.17853800  1.0
  O  O9  1  0.92494700  0.32864400  0.82146200  1.0
