# generated using pymatgen
data_Na5Hf2F13
_symmetry_space_group_name_H-M   'P 1'
_cell_length_a   5.55518800
_cell_length_b   6.46737744
_cell_length_c   8.49837714
_cell_angle_alpha   96.56980401
_cell_angle_beta   90.00000000
_cell_angle_gamma   115.43441443
_symmetry_Int_Tables_number   1
_chemical_formula_structural   Na5Hf2F13
_chemical_formula_sum   'Na5 Hf2 F13'
_cell_volume   273.51065832
_cell_formula_units_Z   1
loop_
 _symmetry_equiv_pos_site_id
 _symmetry_equiv_pos_as_xyz
  1  'x, y, z'
loop_
 _atom_site_type_symbol
 _atom_site_label
 _atom_site_symmetry_multiplicity
 _atom_site_fract_x
 _atom_site_fract_y
 _atom_site_fract_z
 _atom_site_occupancy
  Na  Na0  1  0.77775400  0.55550800  0.84502000  1.0
  Na  Na1  1  0.22224600  0.44449200  0.15498000  1.0
  Na  Na2  1  0.50000000  0.00000000  0.00000000  1.0
  Na  Na3  1  0.33735500  0.67471000  0.57085900  1.0
  Na  Na4  1  0.66264500  0.32529000  0.42914100  1.0
  Hf  Hf5  1  0.07298900  0.14597800  0.74343800  1.0
  Hf  Hf6  1  0.92701100  0.85402200  0.25656200  1.0
  F  F7  1  0.94507800  0.36090700  0.64432200  1.0
  F  F8  1  0.41582900  0.36090700  0.64432200  1.0
  F  F9  1  0.05492200  0.63909300  0.35567800  1.0
  F  F10  1  0.58417100  0.63909300  0.35567800  1.0
  F  F11  1  0.35636600  0.26627600  0.92881600  1.0
  F  F12  1  0.90991000  0.26627600  0.92881600  1.0
  F  F13  1  0.64363400  0.73372400  0.07118400  1.0
  F  F14  1  0.09009000  0.73372400  0.07118400  1.0
  F  F15  1  0.70315400  0.87881700  0.74995700  1.0
  F  F16  1  0.17566300  0.87881700  0.74995700  1.0
  F  F17  1  0.29684600  0.12118300  0.25004300  1.0
  F  F18  1  0.82433700  0.12118300  0.25004300  1.0
  F  F19  1  0.00000000  0.00000000  0.50000000  1.0
