# generated using pymatgen
data_NaAuF4
_symmetry_space_group_name_H-M   'P 1'
_cell_length_a   5.78404600
_cell_length_b   5.78404600
_cell_length_c   6.72548447
_cell_angle_alpha   115.46817046
_cell_angle_beta   115.46817046
_cell_angle_gamma   90.00000000
_symmetry_Int_Tables_number   1
_chemical_formula_structural   NaAuF4
_chemical_formula_sum   'Na2 Au2 F8'
_cell_volume   178.61607863
_cell_formula_units_Z   2
loop_
 _symmetry_equiv_pos_site_id
 _symmetry_equiv_pos_as_xyz
  1  'x, y, z'
loop_
 _atom_site_type_symbol
 _atom_site_label
 _atom_site_symmetry_multiplicity
 _atom_site_fract_x
 _atom_site_fract_y
 _atom_site_fract_z
 _atom_site_occupancy
  Na  Na0  1  0.75000000  0.75000000  0.50000000  1.0
  Na  Na1  1  0.25000000  0.25000000  0.50000000  1.0
  Au  Au2  1  0.00000000  0.50000000  0.00000000  1.0
  Au  Au3  1  0.50000000  0.00000000  0.00000000  1.0
  F  F4  1  0.95776000  0.80151500  0.25927500  1.0
  F  F5  1  0.69848400  0.54223900  0.74072300  1.0
  F  F6  1  0.04224000  0.19848500  0.74072500  1.0
  F  F7  1  0.54224000  0.04224000  0.74072400  1.0
  F  F8  1  0.30151600  0.45776100  0.25927700  1.0
  F  F9  1  0.80151600  0.30151600  0.25927600  1.0
  F  F10  1  0.45776000  0.95776000  0.25927600  1.0
  F  F11  1  0.19848400  0.69848400  0.74072400  1.0
