# generated using pymatgen
data_NaBPt3
_symmetry_space_group_name_H-M   'P 1'
_cell_length_a   5.57380400
_cell_length_b   5.61461200
_cell_length_c   5.61461146
_cell_angle_alpha   120.00000318
_cell_angle_beta   90.00000000
_cell_angle_gamma   90.00000000
_symmetry_Int_Tables_number   1
_chemical_formula_structural   NaBPt3
_chemical_formula_sum   'Na2 B2 Pt6'
_cell_volume   152.16745182
_cell_formula_units_Z   2
loop_
 _symmetry_equiv_pos_site_id
 _symmetry_equiv_pos_as_xyz
  1  'x, y, z'
loop_
 _atom_site_type_symbol
 _atom_site_label
 _atom_site_symmetry_multiplicity
 _atom_site_fract_x
 _atom_site_fract_y
 _atom_site_fract_z
 _atom_site_occupancy
  Na  Na0  1  0.50000000  0.00000000  0.00000000  1.0
  Na  Na1  1  0.00000000  0.00000000  0.00000000  1.0
  B  B2  1  0.50000000  0.33333333  0.66666667  1.0
  B  B3  1  0.50000000  0.66666667  0.33333333  1.0
  Pt  Pt4  1  0.24277100  0.50000000  1.00000000  1.0
  Pt  Pt5  1  0.24277100  1.00000000  0.50000000  1.0
  Pt  Pt6  1  0.24277100  0.50000000  0.50000000  1.0
  Pt  Pt7  1  0.75722900  1.00000000  0.50000000  1.0
  Pt  Pt8  1  0.75722900  0.50000000  1.00000000  1.0
  Pt  Pt9  1  0.75722900  0.50000000  0.50000000  1.0
