# generated using pymatgen
data_NaCoO2
_symmetry_space_group_name_H-M   'P 1'
_cell_length_a   2.82505531
_cell_length_b   4.72815301
_cell_length_c   6.33435302
_cell_angle_alpha   89.99149448
_cell_angle_beta   90.00030369
_cell_angle_gamma   89.94680552
_symmetry_Int_Tables_number   1
_chemical_formula_structural   NaCoO2
_chemical_formula_sum   'Na2 Co2 O4'
_cell_volume   84.60977664
_cell_formula_units_Z   2
loop_
 _symmetry_equiv_pos_site_id
 _symmetry_equiv_pos_as_xyz
  1  'x, y, z'
loop_
 _atom_site_type_symbol
 _atom_site_label
 _atom_site_symmetry_multiplicity
 _atom_site_fract_x
 _atom_site_fract_y
 _atom_site_fract_z
 _atom_site_occupancy
  Co  Co4  1  0.25002900  0.25024600  0.37794250  1.0
  Co  Co5  1  0.74997850  0.74962750  0.62207550  1.0
  Na  Na0  1  0.24999250  0.24994950  0.87333250  1.0
  Na  Na2  1  0.75000550  0.74996550  0.12669500  1.0
  O  O8  1  0.24998550  0.74942450  0.41989350  1.0
  O  O10  1  0.74999150  0.25092250  0.58006550  1.0
  O  O12  1  0.25003500  0.75038300  0.82515200  1.0
  O  O14  1  0.74998250  0.24948350  0.17484500  1.0
