# generated using pymatgen
data_NaCrSe2
_symmetry_space_group_name_H-M   'P 1'
_cell_length_a   3.78391153
_cell_length_b   3.78391153
_cell_length_c   7.16959057
_cell_angle_alpha   74.69923629
_cell_angle_beta   74.69923629
_cell_angle_gamma   60.00000817
_symmetry_Int_Tables_number   1
_chemical_formula_structural   NaCrSe2
_chemical_formula_sum   'Na1 Cr1 Se2'
_cell_volume   84.67341444
_cell_formula_units_Z   1
loop_
 _symmetry_equiv_pos_site_id
 _symmetry_equiv_pos_as_xyz
  1  'x, y, z'
loop_
 _atom_site_type_symbol
 _atom_site_label
 _atom_site_symmetry_multiplicity
 _atom_site_fract_x
 _atom_site_fract_y
 _atom_site_fract_z
 _atom_site_occupancy
  Na  Na0  1  0.50000000  0.50000000  0.50000000  1.0
  Cr  Cr1  1  0.00000000  0.00000000  0.00000000  1.0
  Se  Se2  1  0.26700200  0.26700200  0.19899400  1.0
  Se  Se3  1  0.73299800  0.73299800  0.80100600  1.0
