# generated using pymatgen
data_NaCr4O8
_symmetry_space_group_name_H-M   'P 1'
_cell_length_a   2.98833200
_cell_length_b   7.10686847
_cell_length_c   7.14550558
_cell_angle_alpha   87.57528165
_cell_angle_beta   77.93005041
_cell_angle_gamma   77.86343456
_symmetry_Int_Tables_number   1
_chemical_formula_structural   NaCr4O8
_chemical_formula_sum   'Na1 Cr4 O8'
_cell_volume   145.08211138
_cell_formula_units_Z   1
loop_
 _symmetry_equiv_pos_site_id
 _symmetry_equiv_pos_as_xyz
  1  'x, y, z'
loop_
 _atom_site_type_symbol
 _atom_site_label
 _atom_site_symmetry_multiplicity
 _atom_site_fract_x
 _atom_site_fract_y
 _atom_site_fract_z
 _atom_site_occupancy
  Na  Na0  1  0.50000000  1.00000000  0.00000000  1.0
  Cr  Cr1  1  0.16548800  0.48663700  0.18238700  1.0
  Cr  Cr2  1  0.34848800  0.81628000  0.48674300  1.0
  Cr  Cr3  1  0.65151200  0.18372000  0.51325700  1.0
  Cr  Cr4  1  0.83451200  0.51336300  0.81761300  1.0
  O  O5  1  0.80118600  0.35067400  0.04695500  1.0
  O  O6  1  0.54007200  0.62279600  0.29706100  1.0
  O  O7  1  0.84747900  0.95262400  0.35241800  1.0
  O  O8  1  0.16226100  0.29782400  0.37765300  1.0
  O  O9  1  0.83773900  0.70217600  0.62234700  1.0
  O  O10  1  0.15252100  0.04737600  0.64758200  1.0
  O  O11  1  0.45992800  0.37720400  0.70293900  1.0
  O  O12  1  0.19881400  0.64932600  0.95304500  1.0
