# generated using pymatgen
data_NaDyO2
_symmetry_space_group_name_H-M   'P 1'
_cell_length_a   5.98228685
_cell_length_b   6.09461934
_cell_length_c   7.43843315
_cell_angle_alpha   104.66762801
_cell_angle_beta   104.04729000
_cell_angle_gamma   112.89767219
_symmetry_Int_Tables_number   1
_chemical_formula_structural   NaDyO2
_chemical_formula_sum   'Na4 Dy4 O8'
_cell_volume   223.27061391
_cell_formula_units_Z   4
loop_
 _symmetry_equiv_pos_site_id
 _symmetry_equiv_pos_as_xyz
  1  'x, y, z'
loop_
 _atom_site_type_symbol
 _atom_site_label
 _atom_site_symmetry_multiplicity
 _atom_site_fract_x
 _atom_site_fract_y
 _atom_site_fract_z
 _atom_site_occupancy
  Na  Na0  1  0.69414600  0.94414600  0.88829200  1.0
  Na  Na1  1  0.93035600  0.18035600  0.36071200  1.0
  Na  Na2  1  0.06964400  0.81964400  0.63928800  1.0
  Na  Na3  1  0.30585400  0.05585400  0.11170800  1.0
  Dy  Dy4  1  0.18283300  0.43283300  0.86566600  1.0
  Dy  Dy5  1  0.44311400  0.69311400  0.38622800  1.0
  Dy  Dy6  1  0.81716700  0.56716700  0.13433400  1.0
  Dy  Dy7  1  0.55688600  0.30688600  0.61377200  1.0
  O  O8  1  0.66746900  0.45961200  0.37629300  1.0
  O  O9  1  0.93589800  0.64229300  0.87317400  1.0
  O  O10  1  0.79117600  0.08331900  0.62370700  1.0
  O  O11  1  0.56272400  0.76911900  0.12682600  1.0
  O  O12  1  0.43727600  0.23088100  0.87317400  1.0
  O  O13  1  0.20882400  0.91668100  0.37629300  1.0
  O  O14  1  0.06410200  0.35770700  0.12682600  1.0
  O  O15  1  0.33253100  0.54038800  0.62370700  1.0
