# generated using pymatgen
data_NaFe(GeO3)2
_symmetry_space_group_name_H-M   'P 1'
_cell_length_a   5.59431657
_cell_length_b   6.81122367
_cell_length_c   6.81122367
_cell_angle_alpha   83.08996591
_cell_angle_beta   76.76729536
_cell_angle_gamma   76.76729536
_symmetry_Int_Tables_number   1
_chemical_formula_structural   NaFe(GeO3)2
_chemical_formula_sum   'Na2 Fe2 Ge4 O12'
_cell_volume   245.30420585
_cell_formula_units_Z   2
loop_
 _symmetry_equiv_pos_site_id
 _symmetry_equiv_pos_as_xyz
  1  'x, y, z'
loop_
 _atom_site_type_symbol
 _atom_site_label
 _atom_site_symmetry_multiplicity
 _atom_site_fract_x
 _atom_site_fract_y
 _atom_site_fract_z
 _atom_site_occupancy
  Na  Na0  1  0.25000000  0.29997800  0.70002200  1.0
  Na  Na1  1  0.75000000  0.70002200  0.29997800  1.0
  Fe  Fe2  1  0.25000000  0.90285000  0.09715000  1.0
  Fe  Fe3  1  0.75000000  0.09715000  0.90285000  1.0
  Ge  Ge4  1  0.27377700  0.37994700  0.19386000  1.0
  Ge  Ge5  1  0.22622300  0.80614000  0.62005300  1.0
  Ge  Ge6  1  0.72622300  0.62005300  0.80614000  1.0
  Ge  Ge7  1  0.77377700  0.19386000  0.37994700  1.0
  O  O8  1  0.20210700  0.62796700  0.08956500  1.0
  O  O9  1  0.29789300  0.91043500  0.37203300  1.0
  O  O10  1  0.79789300  0.37203300  0.91043500  1.0
  O  O11  1  0.70210700  0.08956500  0.62796700  1.0
  O  O12  1  0.37096700  0.18496200  0.02523800  1.0
  O  O13  1  0.12903300  0.97476200  0.81503800  1.0
  O  O14  1  0.62903300  0.81503800  0.97476200  1.0
  O  O15  1  0.87096700  0.02523800  0.18496200  1.0
  O  O16  1  0.48543600  0.36566100  0.35570900  1.0
  O  O17  1  0.01456400  0.64429100  0.63433900  1.0
  O  O18  1  0.51456400  0.63433900  0.64429100  1.0
  O  O19  1  0.98543600  0.35570900  0.36566100  1.0
