# generated using pymatgen
data_NaGaTe2
_symmetry_space_group_name_H-M   'P 1'
_cell_length_a   7.14643000
_cell_length_b   7.46165110
_cell_length_c   7.14643000
_cell_angle_alpha   118.61209945
_cell_angle_beta   89.99999999
_cell_angle_gamma   118.61209946
_symmetry_Int_Tables_number   1
_chemical_formula_structural   NaGaTe2
_chemical_formula_sum   'Na2 Ga2 Te4'
_cell_volume   280.38421462
_cell_formula_units_Z   2
loop_
 _symmetry_equiv_pos_site_id
 _symmetry_equiv_pos_as_xyz
  1  'x, y, z'
loop_
 _atom_site_type_symbol
 _atom_site_label
 _atom_site_symmetry_multiplicity
 _atom_site_fract_x
 _atom_site_fract_y
 _atom_site_fract_z
 _atom_site_occupancy
  Na  Na0  1  0.25000000  0.50000000  0.75000000  1.0
  Na  Na1  1  0.00000000  0.00000000  0.00000000  1.0
  Ga  Ga2  1  0.75000000  0.50000000  0.25000000  1.0
  Ga  Ga3  1  0.50000000  0.00000000  0.50000000  1.0
  Te  Te4  1  0.62500000  0.75000000  0.17715100  1.0
  Te  Te5  1  0.42715100  0.25000000  0.37500000  1.0
  Te  Te6  1  0.82284900  0.25000000  0.87500000  1.0
  Te  Te7  1  0.12500000  0.75000000  0.57284900  1.0
