# generated using pymatgen
data_NaHo2F7
_symmetry_space_group_name_H-M   'P 1'
_cell_length_a   4.19547552
_cell_length_b   4.24263557
_cell_length_c   9.02162131
_cell_angle_alpha   99.36840129
_cell_angle_beta   90.90223800
_cell_angle_gamma   102.25684682
_symmetry_Int_Tables_number   1
_chemical_formula_structural   NaHo2F7
_chemical_formula_sum   'Na1 Ho2 F7'
_cell_volume   154.61943120
_cell_formula_units_Z   1
loop_
 _symmetry_equiv_pos_site_id
 _symmetry_equiv_pos_as_xyz
  1  'x, y, z'
loop_
 _atom_site_type_symbol
 _atom_site_label
 _atom_site_symmetry_multiplicity
 _atom_site_fract_x
 _atom_site_fract_y
 _atom_site_fract_z
 _atom_site_occupancy
  Na  Na0  1  0.07815200  0.15197700  0.00639200  1.0
  Ho  Ho1  1  0.33282900  0.75139900  0.67805000  1.0
  Ho  Ho2  1  0.59675600  0.21320300  0.34187300  1.0
  F  F3  1  0.27025100  0.64306600  0.89484400  1.0
  F  F4  1  0.40124700  0.23592200  0.60323100  1.0
  F  F5  1  0.94724100  0.50503600  0.51456800  1.0
  F  F6  1  0.86684400  0.93139200  0.75077100  1.0
  F  F7  1  0.06396500  0.07281700  0.27493400  1.0
  F  F8  1  0.49526700  0.72095700  0.40324000  1.0
  F  F9  1  0.61411500  0.27956600  0.11543000  1.0
