# generated using pymatgen
data_NaLa2RuO6
_symmetry_space_group_name_H-M   'P 1'
_cell_length_a   5.63976900
_cell_length_b   6.01683200
_cell_length_c   8.09877381
_cell_angle_alpha   90.00000000
_cell_angle_beta   90.63336155
_cell_angle_gamma   90.00000000
_symmetry_Int_Tables_number   1
_chemical_formula_structural   NaLa2RuO6
_chemical_formula_sum   'Na2 La4 Ru2 O12'
_cell_volume   274.80329528
_cell_formula_units_Z   2
loop_
 _symmetry_equiv_pos_site_id
 _symmetry_equiv_pos_as_xyz
  1  'x, y, z'
loop_
 _atom_site_type_symbol
 _atom_site_label
 _atom_site_symmetry_multiplicity
 _atom_site_fract_x
 _atom_site_fract_y
 _atom_site_fract_z
 _atom_site_occupancy
  Na  Na0  1  0.00000000  0.00000000  0.00000000  1.0
  Na  Na1  1  0.50000000  0.50000000  0.50000000  1.0
  La  La2  1  0.98192500  0.56760800  0.75340800  1.0
  La  La3  1  0.51807500  0.06760800  0.74659200  1.0
  La  La4  1  0.01807500  0.43239200  0.24659200  1.0
  La  La5  1  0.48192500  0.93239200  0.25340800  1.0
  Ru  Ru6  1  0.50000000  0.50000000  1.00000000  1.0
  Ru  Ru7  1  0.00000000  1.00000000  0.50000000  1.0
  O  O8  1  0.83409400  0.27834500  0.56740700  1.0
  O  O9  1  0.66590600  0.77834500  0.93259300  1.0
  O  O10  1  0.16590600  0.72165500  0.43259300  1.0
  O  O11  1  0.33409400  0.22165500  0.06740700  1.0
  O  O12  1  0.11520400  0.95101100  0.72961700  1.0
  O  O13  1  0.38479600  0.45101100  0.77038300  1.0
  O  O14  1  0.88479600  0.04898900  0.27038300  1.0
  O  O15  1  0.61520400  0.54898900  0.22961700  1.0
  O  O16  1  0.21109100  0.67340800  0.05086000  1.0
  O  O17  1  0.28890900  0.17340800  0.44914000  1.0
  O  O18  1  0.78890900  0.32659200  0.94914000  1.0
  O  O19  1  0.71109100  0.82659200  0.55086000  1.0
