# generated using pymatgen
data_NaMn3V4O12
_symmetry_space_group_name_H-M   'P 1'
_cell_length_a   6.47222943
_cell_length_b   6.47388987
_cell_length_c   6.50599690
_cell_angle_alpha   70.79431608
_cell_angle_beta   70.13471065
_cell_angle_gamma   109.15609138
_symmetry_Int_Tables_number   1
_chemical_formula_structural   NaMn3V4O12
_chemical_formula_sum   'Na1 Mn3 V4 O12'
_cell_volume   210.32538001
_cell_formula_units_Z   1
loop_
 _symmetry_equiv_pos_site_id
 _symmetry_equiv_pos_as_xyz
  1  'x, y, z'
loop_
 _atom_site_type_symbol
 _atom_site_label
 _atom_site_symmetry_multiplicity
 _atom_site_fract_x
 _atom_site_fract_y
 _atom_site_fract_z
 _atom_site_occupancy
  Na  Na0  1  0.99997800  0.00001500  0.00003400  1.0
  Mn  Mn1  1  0.49994600  0.49955400  0.00046500  1.0
  Mn  Mn2  1  0.50024600  0.00031200  0.49994600  1.0
  Mn  Mn3  1  0.00036200  0.50000000  0.49960800  1.0
  V  V4  1  0.49999800  0.50009200  0.50010000  1.0
  V  V5  1  0.99989100  0.99979700  0.50011900  1.0
  V  V6  1  0.00009200  0.50010900  0.99981500  1.0
  V  V7  1  0.50000800  0.99998000  0.00000300  1.0
  O  O8  1  0.50301700  0.68159900  0.18863800  1.0
  O  O9  1  0.87021000  0.69233300  0.81245300  1.0
  O  O10  1  0.12961000  0.30764700  0.18772800  1.0
  O  O11  1  0.49679400  0.31825300  0.81152100  1.0
  O  O12  1  0.68815800  0.18428000  0.12951000  1.0
  O  O13  1  0.69185200  0.81914500  0.49027100  1.0
  O  O14  1  0.30821000  0.18104600  0.50954000  1.0
  O  O15  1  0.31176800  0.81596600  0.87042000  1.0
  O  O16  1  0.82516800  0.12749800  0.68670400  1.0
  O  O17  1  0.18793200  0.49099100  0.68324500  1.0
  O  O18  1  0.81201700  0.50892100  0.31667500  1.0
  O  O19  1  0.17474200  0.87246100  0.31320800  1.0
