# generated using pymatgen
data_NaNbS6
_symmetry_space_group_name_H-M   'P 1'
_cell_length_a   7.29053720
_cell_length_b   7.51872977
_cell_length_c   7.51872977
_cell_angle_alpha   60.45968238
_cell_angle_beta   86.50283507
_cell_angle_gamma   93.49716493
_symmetry_Int_Tables_number   1
_chemical_formula_structural   NaNbS6
_chemical_formula_sum   'Na2 Nb2 S12'
_cell_volume   355.92709962
_cell_formula_units_Z   2
loop_
 _symmetry_equiv_pos_site_id
 _symmetry_equiv_pos_as_xyz
  1  'x, y, z'
loop_
 _atom_site_type_symbol
 _atom_site_label
 _atom_site_symmetry_multiplicity
 _atom_site_fract_x
 _atom_site_fract_y
 _atom_site_fract_z
 _atom_site_occupancy
  Na  Na0  1  0.99956300  0.66923800  0.66842100  1.0
  Na  Na1  1  0.49956300  0.33157900  0.33076200  1.0
  Nb  Nb2  1  0.74093400  0.98223300  0.99083700  1.0
  Nb  Nb3  1  0.24093400  0.00916300  0.01776700  1.0
  S  S4  1  0.47685400  0.76388300  0.96265600  1.0
  S  S5  1  0.97685400  0.03734400  0.23611700  1.0
  S  S6  1  0.79549600  0.64096500  0.30303900  1.0
  S  S7  1  0.29549600  0.69696100  0.35903500  1.0
  S  S8  1  0.98439000  0.73520300  0.04825300  1.0
  S  S9  1  0.48439000  0.95174700  0.26479700  1.0
  S  S10  1  0.66720500  0.91174600  0.70320900  1.0
  S  S11  1  0.16720500  0.29679100  0.08825400  1.0
  S  S12  1  0.70859600  0.33120000  0.94709900  1.0
  S  S13  1  0.20859600  0.05290100  0.66880000  1.0
  S  S14  1  0.52434200  0.27267400  0.78110800  1.0
  S  S15  1  0.02434200  0.21889200  0.72732600  1.0
