# generated using pymatgen
data_NaNd(WO4)2
_symmetry_space_group_name_H-M   'P 1'
_cell_length_a   5.37496600
_cell_length_b   5.37496600
_cell_length_c   6.94166870
_cell_angle_alpha   112.77742279
_cell_angle_beta   112.77742280
_cell_angle_gamma   89.99999999
_symmetry_Int_Tables_number   1
_chemical_formula_structural   NaNd(WO4)2
_chemical_formula_sum   'Na1 Nd1 W2 O8'
_cell_volume   167.81643898
_cell_formula_units_Z   1
loop_
 _symmetry_equiv_pos_site_id
 _symmetry_equiv_pos_as_xyz
  1  'x, y, z'
loop_
 _atom_site_type_symbol
 _atom_site_label
 _atom_site_symmetry_multiplicity
 _atom_site_fract_x
 _atom_site_fract_y
 _atom_site_fract_z
 _atom_site_occupancy
  Na  Na0  1  0.00000000  0.00000000  0.00000000  1.0
  Nd  Nd1  1  0.25000000  0.75000000  0.50000000  1.0
  W  W2  1  0.75000000  0.25000000  0.50000000  1.0
  W  W3  1  0.50000000  0.50000000  0.00000000  1.0
  O  O4  1  0.98918600  0.57549100  0.66592300  1.0
  O  O5  1  0.67673700  0.09043200  0.66592200  1.0
  O  O6  1  0.82918100  0.44500800  0.17708500  1.0
  O  O7  1  0.34790400  0.73207700  0.17708500  1.0
  O  O8  1  0.26792300  0.17081900  0.82291500  1.0
  O  O9  1  0.55499200  0.65209600  0.82291500  1.0
  O  O10  1  0.42451000  0.32326300  0.33407700  1.0
  O  O11  1  0.90956800  0.01081500  0.33407800  1.0
