# generated using pymatgen
data_NaPdO2
_symmetry_space_group_name_H-M   'P 1'
_cell_length_a   3.08843600
_cell_length_b   3.35885426
_cell_length_c   5.53315328
_cell_angle_alpha   76.25233377
_cell_angle_beta   73.79442022
_cell_angle_gamma   62.62931622
_symmetry_Int_Tables_number   1
_chemical_formula_structural   NaPdO2
_chemical_formula_sum   'Na1 Pd1 O2'
_cell_volume   48.54366771
_cell_formula_units_Z   1
loop_
 _symmetry_equiv_pos_site_id
 _symmetry_equiv_pos_as_xyz
  1  'x, y, z'
loop_
 _atom_site_type_symbol
 _atom_site_label
 _atom_site_symmetry_multiplicity
 _atom_site_fract_x
 _atom_site_fract_y
 _atom_site_fract_z
 _atom_site_occupancy
  Na  Na0  1  0.50000000  0.50000000  0.50000000  1.0
  Pd  Pd1  1  0.00000000  0.00000000  0.00000000  1.0
  O  O2  1  0.71546400  0.78033800  0.78873400  1.0
  O  O3  1  0.28453600  0.21966200  0.21126600  1.0
