# generated using pymatgen
data_NaTaWO6
_symmetry_space_group_name_H-M   'P 1'
_cell_length_a   7.38036000
_cell_length_b   7.40654639
_cell_length_c   7.40654639
_cell_angle_alpha   60.18559494
_cell_angle_beta   60.11688707
_cell_angle_gamma   60.11688706
_symmetry_Int_Tables_number   1
_chemical_formula_structural   NaTaWO6
_chemical_formula_sum   'Na2 Ta2 W2 O12'
_cell_volume   287.18826030
_cell_formula_units_Z   2
loop_
 _symmetry_equiv_pos_site_id
 _symmetry_equiv_pos_as_xyz
  1  'x, y, z'
loop_
 _atom_site_type_symbol
 _atom_site_label
 _atom_site_symmetry_multiplicity
 _atom_site_fract_x
 _atom_site_fract_y
 _atom_site_fract_z
 _atom_site_occupancy
  Na  Na0  1  0.50000000  0.00000000  0.00000000  1.0
  Na  Na1  1  0.50000000  0.50000000  0.50000000  1.0
  Ta  Ta2  1  0.00000000  0.50000000  0.00000000  1.0
  Ta  Ta3  1  0.50000000  0.50000000  0.00000000  1.0
  W  W4  1  0.00000000  0.50000000  0.50000000  1.0
  W  W5  1  0.00000000  0.00000000  0.00000000  1.0
  O  O6  1  0.69166300  0.55750800  0.68449800  1.0
  O  O7  1  0.06633100  0.55750800  0.68449800  1.0
  O  O8  1  0.05772300  0.19227700  0.69227700  1.0
  O  O9  1  0.06633100  0.18449800  0.05750800  1.0
  O  O10  1  0.69166300  0.18449800  0.05750800  1.0
  O  O11  1  0.68038000  0.56962000  0.06962000  1.0
  O  O12  1  0.30833700  0.44249200  0.31550200  1.0
  O  O13  1  0.93366900  0.44249200  0.31550200  1.0
  O  O14  1  0.94227700  0.80772300  0.30772300  1.0
  O  O15  1  0.93366900  0.81550200  0.94249200  1.0
  O  O16  1  0.30833700  0.81550200  0.94249200  1.0
  O  O17  1  0.31962000  0.43038000  0.93038000  1.0
