# generated using pymatgen
data_NaTeH6O6F
_symmetry_space_group_name_H-M   'P 1'
_cell_length_a   5.70912742
_cell_length_b   5.70912742
_cell_length_c   5.70912816
_cell_angle_alpha   64.62446311
_cell_angle_beta   64.62446311
_cell_angle_gamma   64.62446836
_symmetry_Int_Tables_number   1
_chemical_formula_structural   NaTeH6O6F
_chemical_formula_sum   'Na1 Te1 H6 O6 F1'
_cell_volume   144.91237493
_cell_formula_units_Z   1
loop_
 _symmetry_equiv_pos_site_id
 _symmetry_equiv_pos_as_xyz
  1  'x, y, z'
loop_
 _atom_site_type_symbol
 _atom_site_label
 _atom_site_symmetry_multiplicity
 _atom_site_fract_x
 _atom_site_fract_y
 _atom_site_fract_z
 _atom_site_occupancy
  Na  Na0  1  0.37621800  0.37621800  0.37621800  1.0
  Te  Te1  1  0.00281800  0.00281800  0.00281800  1.0
  H  H2  1  0.01647600  0.95503700  0.45522000  1.0
  H  H3  1  0.45522000  0.01647600  0.95503700  1.0
  H  H4  1  0.95503700  0.45522000  0.01647600  1.0
  H  H5  1  0.79882000  0.32063300  0.61780900  1.0
  H  H6  1  0.61780900  0.79882000  0.32063300  1.0
  H  H7  1  0.32063300  0.61780900  0.79882000  1.0
  O  O8  1  0.06479500  0.82356300  0.35694000  1.0
  O  O9  1  0.35694000  0.06479600  0.82356300  1.0
  O  O10  1  0.82356300  0.35694000  0.06479500  1.0
  O  O11  1  0.97100600  0.15770100  0.63392500  1.0
  O  O12  1  0.63392500  0.97100600  0.15770100  1.0
  O  O13  1  0.15770100  0.63392500  0.97100600  1.0
  F  F14  1  0.55613700  0.55613700  0.55613700  1.0
