# generated using pymatgen
data_NaV4Cd3O12
_symmetry_space_group_name_H-M   'P 1'
_cell_length_a   5.35417487
_cell_length_b   5.40070594
_cell_length_c   7.66689058
_cell_angle_alpha   89.61873634
_cell_angle_beta   90.37944307
_cell_angle_gamma   89.66915941
_symmetry_Int_Tables_number   1
_chemical_formula_structural   NaV4Cd3O12
_chemical_formula_sum   'Na1 V4 Cd3 O12'
_cell_volume   221.68476970
_cell_formula_units_Z   1
loop_
 _symmetry_equiv_pos_site_id
 _symmetry_equiv_pos_as_xyz
  1  'x, y, z'
loop_
 _atom_site_type_symbol
 _atom_site_label
 _atom_site_symmetry_multiplicity
 _atom_site_fract_x
 _atom_site_fract_y
 _atom_site_fract_z
 _atom_site_occupancy
  Na  Na0  1  0.49243700  0.53319500  0.75212900  1.0
  V  V1  1  0.00507100  0.50095100  0.00663100  1.0
  V  V2  1  0.50694400  0.99822100  0.50035600  1.0
  V  V3  1  0.00923900  0.49976600  0.51618000  1.0
  V  V4  1  0.49786000  0.00091100  0.99796100  1.0
  Cd  Cd5  1  0.00390400  0.03273000  0.75045100  1.0
  Cd  Cd6  1  0.51212000  0.46602900  0.25437800  1.0
  Cd  Cd7  1  0.99260200  0.96408100  0.25414800  1.0
  O  O8  1  0.19259700  0.78061400  0.95074500  1.0
  O  O9  1  0.27961500  0.29638900  0.53759500  1.0
  O  O10  1  0.79914300  0.21401500  0.44817900  1.0
  O  O11  1  0.69380000  0.71744200  0.04111400  1.0
  O  O12  1  0.80024800  0.21739100  0.04061800  1.0
  O  O13  1  0.71242700  0.70301100  0.45396600  1.0
  O  O14  1  0.19441400  0.78977000  0.54645000  1.0
  O  O15  1  0.29426500  0.27297300  0.96098100  1.0
  O  O16  1  0.58195500  0.98615600  0.73913800  1.0
  O  O17  1  0.92216700  0.47446800  0.74105300  1.0
  O  O18  1  0.41438000  0.02069400  0.25758200  1.0
  O  O19  1  0.09481400  0.53119500  0.25034600  1.0
