# generated using pymatgen
data_NaVWO6
_symmetry_space_group_name_H-M   'P 1'
_cell_length_a   3.76512100
_cell_length_b   5.17091414
_cell_length_c   7.25630180
_cell_angle_alpha   70.31268356
_cell_angle_beta   74.96327762
_cell_angle_gamma   68.64980298
_symmetry_Int_Tables_number   1
_chemical_formula_structural   NaVWO6
_chemical_formula_sum   'Na1 V1 W1 O6'
_cell_volume   122.37067075
_cell_formula_units_Z   1
loop_
 _symmetry_equiv_pos_site_id
 _symmetry_equiv_pos_as_xyz
  1  'x, y, z'
loop_
 _atom_site_type_symbol
 _atom_site_label
 _atom_site_symmetry_multiplicity
 _atom_site_fract_x
 _atom_site_fract_y
 _atom_site_fract_z
 _atom_site_occupancy
  Na  Na0  1  0.99791200  0.99893000  0.00524700  1.0
  V  V1  1  0.18218500  0.26994400  0.36568500  1.0
  W  W2  1  0.82101400  0.73636900  0.62160300  1.0
  O  O3  1  0.32162800  0.21248900  0.14425400  1.0
  O  O4  1  0.66937400  0.80266100  0.85859100  1.0
  O  O5  1  0.69819000  0.16695200  0.43666900  1.0
  O  O6  1  0.30916000  0.82537100  0.55630800  1.0
  O  O7  1  0.01968500  0.63901600  0.32161400  1.0
  O  O8  1  0.98085200  0.34826700  0.69002900  1.0
