# generated using pymatgen
data_Nb2AgS4
_symmetry_space_group_name_H-M   'P 1'
_cell_length_a   3.39658200
_cell_length_b   3.39658261
_cell_length_c   14.56629800
_cell_angle_alpha   90.00000000
_cell_angle_beta   90.00000000
_cell_angle_gamma   119.99999408
_symmetry_Int_Tables_number   1
_chemical_formula_structural   Nb2AgS4
_chemical_formula_sum   'Nb2 Ag1 S4'
_cell_volume   145.53388871
_cell_formula_units_Z   1
loop_
 _symmetry_equiv_pos_site_id
 _symmetry_equiv_pos_as_xyz
  1  'x, y, z'
loop_
 _atom_site_type_symbol
 _atom_site_label
 _atom_site_symmetry_multiplicity
 _atom_site_fract_x
 _atom_site_fract_y
 _atom_site_fract_z
 _atom_site_occupancy
  Nb  Nb0  1  0.00000000  0.00000000  0.24211900  1.0
  Nb  Nb1  1  0.33333333  0.66666667  0.75351500  1.0
  Ag  Ag2  1  0.00000000  0.00000000  0.47847900  1.0
  S  S3  1  0.00000000  0.00000000  0.64594300  1.0
  S  S4  1  0.33333333  0.66666667  0.35036300  1.0
  S  S5  1  0.33333333  0.66666667  0.13827900  1.0
  S  S6  1  0.00000000  0.00000000  0.85730200  1.0
