# generated using pymatgen
data_Nb2Bi2PbO9
_symmetry_space_group_name_H-M   'P 1'
_cell_length_a   3.96486200
_cell_length_b   3.96486200
_cell_length_c   12.86882012
_cell_angle_alpha   98.86165514
_cell_angle_beta   98.86165514
_cell_angle_gamma   90.00000000
_symmetry_Int_Tables_number   1
_chemical_formula_structural   Nb2Bi2PbO9
_chemical_formula_sum   'Nb2 Bi2 Pb1 O9'
_cell_volume   197.44037669
_cell_formula_units_Z   1
loop_
 _symmetry_equiv_pos_site_id
 _symmetry_equiv_pos_as_xyz
  1  'x, y, z'
loop_
 _atom_site_type_symbol
 _atom_site_label
 _atom_site_symmetry_multiplicity
 _atom_site_fract_x
 _atom_site_fract_y
 _atom_site_fract_z
 _atom_site_occupancy
  Nb  Nb0  1  0.41226600  0.41226600  0.82453200  1.0
  Nb  Nb1  1  0.58773400  0.58773400  0.17546800  1.0
  Bi  Bi2  1  0.20111500  0.20111500  0.40223000  1.0
  Bi  Bi3  1  0.79888500  0.79888500  0.59777000  1.0
  Pb  Pb4  1  0.00000000  0.00000000  0.00000000  1.0
  O  O5  1  0.57986700  0.07986700  0.15973400  1.0
  O  O6  1  0.92013300  0.42013300  0.84026600  1.0
  O  O7  1  0.42013300  0.92013300  0.84026600  1.0
  O  O8  1  0.07986700  0.57986700  0.15973400  1.0
  O  O9  1  0.75000000  0.25000000  0.50000000  1.0
  O  O10  1  0.50000000  0.50000000  0.00000000  1.0
  O  O11  1  0.66338300  0.66338300  0.32676600  1.0
  O  O12  1  0.33661700  0.33661700  0.67323400  1.0
  O  O13  1  0.25000000  0.75000000  0.50000000  1.0
