# generated using pymatgen
data_Nb2SiTe4
_symmetry_space_group_name_H-M   'P 1'
_cell_length_a   3.56597726
_cell_length_b   6.89508507
_cell_length_c   8.28491680
_cell_angle_alpha   74.01139705
_cell_angle_beta   86.88362413
_cell_angle_gamma   89.96239852
_symmetry_Int_Tables_number   1
_chemical_formula_structural   Nb2SiTe4
_chemical_formula_sum   'Nb2 Si1 Te4'
_cell_volume   195.51573140
_cell_formula_units_Z   1
loop_
 _symmetry_equiv_pos_site_id
 _symmetry_equiv_pos_as_xyz
  1  'x, y, z'
loop_
 _atom_site_type_symbol
 _atom_site_label
 _atom_site_symmetry_multiplicity
 _atom_site_fract_x
 _atom_site_fract_y
 _atom_site_fract_z
 _atom_site_occupancy
  Nb  Nb0  1  0.50766900  0.78938600  0.00012400  1.0
  Nb  Nb1  1  0.50696300  0.21120300  0.00031100  1.0
  Si  Si2  1  0.00766100  0.49996400  0.00057100  1.0
  Te  Te3  1  0.97786900  0.92606100  0.22223400  1.0
  Te  Te4  1  0.54082300  0.58961900  0.72827400  1.0
  Te  Te5  1  0.47374900  0.40989400  0.27234500  1.0
  Te  Te6  1  0.03646700  0.07387200  0.77814000  1.0
