# generated using pymatgen
data_Nb3FeSe10
_symmetry_space_group_name_H-M   'P 1'
_cell_length_a   3.53167700
_cell_length_b   9.40664700
_cell_length_c   10.21165136
_cell_angle_alpha   113.16446189
_cell_angle_beta   90.00000000
_cell_angle_gamma   90.00000000
_symmetry_Int_Tables_number   1
_chemical_formula_structural   Nb3FeSe10
_chemical_formula_sum   'Nb3 Fe1 Se10'
_cell_volume   311.89371412
_cell_formula_units_Z   1
loop_
 _symmetry_equiv_pos_site_id
 _symmetry_equiv_pos_as_xyz
  1  'x, y, z'
loop_
 _atom_site_type_symbol
 _atom_site_label
 _atom_site_symmetry_multiplicity
 _atom_site_fract_x
 _atom_site_fract_y
 _atom_site_fract_z
 _atom_site_occupancy
  Nb  Nb0  1  1.00000000  0.72306600  0.63183300  1.0
  Nb  Nb1  1  0.50000000  0.27839600  0.35993100  1.0
  Nb  Nb2  1  0.50000000  0.54471600  0.91678300  1.0
  Fe  Fe3  1  0.00000000  0.45309800  0.09972900  1.0
  Se  Se4  1  0.50000000  0.95397800  0.75505100  1.0
  Se  Se5  1  1.00000000  0.04604100  0.23942200  1.0
  Se  Se6  1  0.50000000  0.51134000  0.63007500  1.0
  Se  Se7  1  1.00000000  0.48522900  0.35269900  1.0
  Se  Se8  1  0.50000000  0.83868800  0.50297000  1.0
  Se  Se9  1  1.00000000  0.16535800  0.49084800  1.0
  Se  Se10  1  1.00000000  0.75717800  0.91250700  1.0
  Se  Se11  1  0.50000000  0.26661000  0.08872300  1.0
  Se  Se12  1  1.00000000  0.33057400  0.84382300  1.0
  Se  Se13  1  0.50000000  0.64572800  0.17560700  1.0
