# generated using pymatgen
data_Nb3TeI7
_symmetry_space_group_name_H-M   'P 1'
_cell_length_a   7.24533600
_cell_length_b   7.73431400
_cell_length_c   7.73431452
_cell_angle_alpha   60.00000221
_cell_angle_beta   90.00000000
_cell_angle_gamma   90.00000000
_symmetry_Int_Tables_number   1
_chemical_formula_structural   Nb3TeI7
_chemical_formula_sum   'Nb3 Te1 I7'
_cell_volume   375.34687181
_cell_formula_units_Z   1
loop_
 _symmetry_equiv_pos_site_id
 _symmetry_equiv_pos_as_xyz
  1  'x, y, z'
loop_
 _atom_site_type_symbol
 _atom_site_label
 _atom_site_symmetry_multiplicity
 _atom_site_fract_x
 _atom_site_fract_y
 _atom_site_fract_z
 _atom_site_occupancy
  Nb  Nb0  1  0.50139200  0.86761000  0.86761000  1.0
  Nb  Nb1  1  0.50139200  0.86761000  0.26478000  1.0
  Nb  Nb2  1  0.50139200  0.26478000  0.86761000  1.0
  Te  Te3  1  0.78879100  0.00000000  0.00000000  1.0
  I  I4  1  0.24520300  0.16742100  0.16742100  1.0
  I  I5  1  0.71449300  0.00152800  0.49923600  1.0
  I  I6  1  0.24520300  0.16742100  0.66515800  1.0
  I  I7  1  0.71449300  0.49923600  0.49923600  1.0
  I  I8  1  0.29834600  0.66666667  0.66666667  1.0
  I  I9  1  0.24520300  0.66515800  0.16742100  1.0
  I  I10  1  0.71449300  0.49923600  0.00152800  1.0
