# generated using pymatgen
data_Nb3WSe8
_symmetry_space_group_name_H-M   'P 1'
_cell_length_a   3.44015800
_cell_length_b   5.97509347
_cell_length_c   14.32260095
_cell_angle_alpha   94.56235683
_cell_angle_beta   96.89761046
_cell_angle_gamma   90.00000000
_symmetry_Int_Tables_number   1
_chemical_formula_structural   Nb3WSe8
_chemical_formula_sum   'Nb3 W1 Se8'
_cell_volume   291.33437981
_cell_formula_units_Z   1
loop_
 _symmetry_equiv_pos_site_id
 _symmetry_equiv_pos_as_xyz
  1  'x, y, z'
loop_
 _atom_site_type_symbol
 _atom_site_label
 _atom_site_symmetry_multiplicity
 _atom_site_fract_x
 _atom_site_fract_y
 _atom_site_fract_z
 _atom_site_occupancy
  Nb  Nb0  1  0.25038200  0.75122700  0.50076400  1.0
  Nb  Nb1  1  0.50006400  0.51079500  0.00012800  1.0
  Nb  Nb2  1  0.75009200  0.24973100  0.50018400  1.0
  W  W3  1  0.00018600  0.98947200  0.00037200  1.0
  Se  Se4  1  0.93959700  0.64836200  0.87919400  1.0
  Se  Se5  1  0.19019700  0.39420300  0.38039400  1.0
  Se  Se6  1  0.44267700  0.14043900  0.88535400  1.0
  Se  Se7  1  0.69011700  0.89313800  0.38023400  1.0
  Se  Se8  1  0.31008300  0.43816700  0.62016600  1.0
  Se  Se9  1  0.55766400  0.18499400  0.11532800  1.0
  Se  Se10  1  0.81042300  0.93918500  0.62084600  1.0
  Se  Se11  1  0.06051700  0.69428600  0.12103400  1.0
