# generated using pymatgen
data_Nb4CuSe8
_symmetry_space_group_name_H-M   'P 1'
_cell_length_a   3.50828800
_cell_length_b   6.07199916
_cell_length_c   13.55998827
_cell_angle_alpha   102.75549630
_cell_angle_beta   97.43271266
_cell_angle_gamma   90.00000000
_symmetry_Int_Tables_number   1
_chemical_formula_structural   Nb4CuSe8
_chemical_formula_sum   'Nb4 Cu1 Se8'
_cell_volume   279.24141343
_cell_formula_units_Z   1
loop_
 _symmetry_equiv_pos_site_id
 _symmetry_equiv_pos_as_xyz
  1  'x, y, z'
loop_
 _atom_site_type_symbol
 _atom_site_label
 _atom_site_symmetry_multiplicity
 _atom_site_fract_x
 _atom_site_fract_y
 _atom_site_fract_z
 _atom_site_occupancy
  Nb  Nb0  1  0.62489900  0.63600600  0.24979800  1.0
  Nb  Nb1  1  0.12445600  0.11517400  0.24891200  1.0
  Nb  Nb2  1  0.37510100  0.36399400  0.75020200  1.0
  Nb  Nb3  1  0.87554400  0.88482600  0.75108800  1.0
  Cu  Cu4  1  0.00000000  0.00000000  0.00000000  1.0
  Se  Se5  1  0.05931100  0.71998500  0.11862200  1.0
  Se  Se6  1  0.56113900  0.23484200  0.12227800  1.0
  Se  Se7  1  0.43886100  0.76515800  0.87772200  1.0
  Se  Se8  1  0.94068900  0.28001500  0.88137800  1.0
  Se  Se9  1  0.31300700  0.64514100  0.62601400  1.0
  Se  Se10  1  0.81026800  0.14335000  0.62053600  1.0
  Se  Se11  1  0.18973200  0.85665000  0.37946400  1.0
  Se  Se12  1  0.68699300  0.35485900  0.37398600  1.0
