# generated using pymatgen
data_Nb4Pb3O13
_symmetry_space_group_name_H-M   'P 1'
_cell_length_a   7.55657960
_cell_length_b   7.55657960
_cell_length_c   7.55657961
_cell_angle_alpha   60.39153371
_cell_angle_beta   60.39153371
_cell_angle_gamma   60.39153837
_symmetry_Int_Tables_number   1
_chemical_formula_structural   Nb4Pb3O13
_chemical_formula_sum   'Nb4 Pb3 O13'
_cell_volume   307.81479870
_cell_formula_units_Z   1
loop_
 _symmetry_equiv_pos_site_id
 _symmetry_equiv_pos_as_xyz
  1  'x, y, z'
loop_
 _atom_site_type_symbol
 _atom_site_label
 _atom_site_symmetry_multiplicity
 _atom_site_fract_x
 _atom_site_fract_y
 _atom_site_fract_z
 _atom_site_occupancy
  Nb  Nb0  1  0.49993700  0.49993700  0.49993700  1.0
  Nb  Nb1  1  0.50031500  0.99959700  0.50031500  1.0
  Nb  Nb2  1  0.50031500  0.50031500  0.99959700  1.0
  Nb  Nb3  1  0.99959700  0.50031500  0.50031500  1.0
  Pb  Pb4  1  0.99760200  0.50868800  0.99760200  1.0
  Pb  Pb5  1  0.99760200  0.99760200  0.50868800  1.0
  Pb  Pb6  1  0.50868800  0.99760200  0.99760200  1.0
  O  O7  1  0.56785000  0.18504500  0.56785000  1.0
  O  O8  1  0.18880400  0.55483200  0.18880400  1.0
  O  O9  1  0.56785000  0.56785000  0.18504500  1.0
  O  O10  1  0.18880400  0.18880400  0.55483200  1.0
  O  O11  1  0.55483200  0.18880400  0.18880400  1.0
  O  O12  1  0.18504500  0.56785000  0.56785000  1.0
  O  O13  1  0.43543200  0.81317500  0.43543200  1.0
  O  O14  1  0.81167200  0.44503500  0.81167200  1.0
  O  O15  1  0.43543200  0.43543200  0.81317500  1.0
  O  O16  1  0.81167200  0.81167200  0.44503500  1.0
  O  O17  1  0.44503500  0.81167200  0.81167200  1.0
  O  O18  1  0.81317500  0.43543200  0.43543200  1.0
  O  O19  1  0.86534200  0.86534200  0.86534200  1.0
