# generated using pymatgen
data_Nb5Ge3
_symmetry_space_group_name_H-M   'P 1'
_cell_length_a   5.18560000
_cell_length_b   7.68999561
_cell_length_c   7.68999561
_cell_angle_alpha   83.47247769
_cell_angle_beta   70.29573482
_cell_angle_gamma   70.29573481
_symmetry_Int_Tables_number   1
_chemical_formula_structural   Nb5Ge3
_chemical_formula_sum   'Nb10 Ge6'
_cell_volume   271.79503406
_cell_formula_units_Z   2
loop_
 _symmetry_equiv_pos_site_id
 _symmetry_equiv_pos_as_xyz
  1  'x, y, z'
loop_
 _atom_site_type_symbol
 _atom_site_label
 _atom_site_symmetry_multiplicity
 _atom_site_fract_x
 _atom_site_fract_y
 _atom_site_fract_z
 _atom_site_occupancy
  Nb  Nb0  1  0.42452600  0.29816100  0.85278800  1.0
  Nb  Nb1  1  0.57547400  0.70183900  0.14721200  1.0
  Nb  Nb2  1  0.72268700  0.85278800  0.70183800  1.0
  Nb  Nb3  1  0.27731300  0.14721200  0.29816200  1.0
  Nb  Nb4  1  0.77731400  0.29816100  0.14721200  1.0
  Nb  Nb5  1  0.92452500  0.85278800  0.29816200  1.0
  Nb  Nb6  1  0.07547500  0.14721200  0.70183800  1.0
  Nb  Nb7  1  0.22268600  0.70183900  0.85278800  1.0
  Nb  Nb8  1  0.75000000  0.50000000  0.50000000  1.0
  Nb  Nb9  1  0.25000000  0.50000000  0.50000000  1.0
  Ge  Ge10  1  0.33433400  0.83133200  0.50000000  1.0
  Ge  Ge11  1  0.83433400  0.50000000  0.83133200  1.0
  Ge  Ge12  1  0.16566600  0.50000000  0.16866800  1.0
  Ge  Ge13  1  0.66566600  0.16866800  0.50000000  1.0
  Ge  Ge14  1  0.25000000  0.00000000  0.00000000  1.0
  Ge  Ge15  1  0.75000000  0.00000000  0.00000000  1.0
