# generated using pymatgen
data_NbAlZn
_symmetry_space_group_name_H-M   'P 1'
_cell_length_a   5.05798119
_cell_length_b   5.05796073
_cell_length_c   8.34457300
_cell_angle_alpha   90.00000000
_cell_angle_beta   90.00000000
_cell_angle_gamma   119.28973815
_symmetry_Int_Tables_number   1
_chemical_formula_structural   NbAlZn
_chemical_formula_sum   'Nb4 Al4 Zn4'
_cell_volume   186.18787985
_cell_formula_units_Z   4
loop_
 _symmetry_equiv_pos_site_id
 _symmetry_equiv_pos_as_xyz
  1  'x, y, z'
loop_
 _atom_site_type_symbol
 _atom_site_label
 _atom_site_symmetry_multiplicity
 _atom_site_fract_x
 _atom_site_fract_y
 _atom_site_fract_z
 _atom_site_occupancy
  Nb  Nb0  1  0.33445200  0.66554100  0.56722400  1.0
  Nb  Nb1  1  0.66419500  0.33581900  0.43925800  1.0
  Nb  Nb2  1  0.66419500  0.33581900  0.06074200  1.0
  Nb  Nb3  1  0.33445200  0.66554100  0.93277600  1.0
  Al  Al4  1  0.99728000  0.00271800  0.49228600  1.0
  Al  Al5  1  0.99728000  0.00271800  0.00771400  1.0
  Al  Al6  1  0.34533300  0.16844800  0.75000000  1.0
  Al  Al7  1  0.83154100  0.65465900  0.75000000  1.0
  Zn  Zn8  1  0.83222600  0.16776000  0.75000000  1.0
  Zn  Zn9  1  0.65295300  0.82661600  0.25000000  1.0
  Zn  Zn10  1  0.17339100  0.34705100  0.25000000  1.0
  Zn  Zn11  1  0.17270200  0.82730800  0.25000000  1.0
