# generated using pymatgen
data_NbCr3(AgS4)2
_symmetry_space_group_name_H-M   'P 1'
_cell_length_a   6.00381600
_cell_length_b   6.51599292
_cell_length_c   6.97332400
_cell_angle_alpha   90.00000000
_cell_angle_beta   90.00000000
_cell_angle_gamma   91.18939621
_symmetry_Int_Tables_number   1
_chemical_formula_structural   NbCr3(AgS4)2
_chemical_formula_sum   'Nb1 Cr3 Ag2 S8'
_cell_volume   272.74339342
_cell_formula_units_Z   1
loop_
 _symmetry_equiv_pos_site_id
 _symmetry_equiv_pos_as_xyz
  1  'x, y, z'
loop_
 _atom_site_type_symbol
 _atom_site_label
 _atom_site_symmetry_multiplicity
 _atom_site_fract_x
 _atom_site_fract_y
 _atom_site_fract_z
 _atom_site_occupancy
  Nb  Nb0  1  0.50000000  0.50000000  0.00000000  1.0
  Cr  Cr1  1  0.50000000  0.50000000  0.50000000  1.0
  Cr  Cr2  1  0.00000000  0.50000000  0.74994700  1.0
  Cr  Cr3  1  0.00000000  0.50000000  0.25005300  1.0
  Ag  Ag4  1  0.00000000  0.00000000  0.74739600  1.0
  Ag  Ag5  1  0.00000000  0.00000000  0.25260400  1.0
  S  S6  1  0.67281800  0.71388000  0.74404800  1.0
  S  S7  1  0.67281800  0.71388000  0.25595200  1.0
  S  S8  1  0.17121100  0.70307000  0.50000000  1.0
  S  S9  1  0.16471600  0.71629400  0.00000000  1.0
  S  S10  1  0.82878900  0.29693000  0.50000000  1.0
  S  S11  1  0.83528400  0.28370600  0.00000000  1.0
  S  S12  1  0.32718200  0.28612000  0.25595200  1.0
  S  S13  1  0.32718200  0.28612000  0.74404800  1.0
