# generated using pymatgen
data_NbPS
_symmetry_space_group_name_H-M   'P 1'
_cell_length_a   3.45295800
_cell_length_b   4.73253400
_cell_length_c   6.70970841
_cell_angle_alpha   110.65029291
_cell_angle_beta   104.91054144
_cell_angle_gamma   90.00000001
_symmetry_Int_Tables_number   1
_chemical_formula_structural   NbPS
_chemical_formula_sum   'Nb2 P2 S2'
_cell_volume   98.64512760
_cell_formula_units_Z   2
loop_
 _symmetry_equiv_pos_site_id
 _symmetry_equiv_pos_as_xyz
  1  'x, y, z'
loop_
 _atom_site_type_symbol
 _atom_site_label
 _atom_site_symmetry_multiplicity
 _atom_site_fract_x
 _atom_site_fract_y
 _atom_site_fract_z
 _atom_site_occupancy
  Nb  Nb0  1  0.12422400  0.62422400  0.24844800  1.0
  Nb  Nb1  1  0.87577600  0.37577600  0.75155200  1.0
  P  P2  1  0.50000000  0.23632000  0.00000000  1.0
  P  P3  1  0.50000000  0.76368000  1.00000000  1.0
  S  S4  1  0.78731900  0.78731900  0.57463800  1.0
  S  S5  1  0.21268100  0.21268100  0.42536200  1.0
