# generated using pymatgen
data_NbSeBr
_symmetry_space_group_name_H-M   'P 1'
_cell_length_a   7.46713670
_cell_length_b   7.46713670
_cell_length_c   7.46713670
_cell_angle_alpha   60.00000000
_cell_angle_beta   60.00000000
_cell_angle_gamma   60.00000000
_symmetry_Int_Tables_number   1
_chemical_formula_structural   NbSeBr
_chemical_formula_sum   'Nb4 Se4 Br4'
_cell_volume   294.40644160
_cell_formula_units_Z   4
loop_
 _symmetry_equiv_pos_site_id
 _symmetry_equiv_pos_as_xyz
  1  'x, y, z'
loop_
 _atom_site_type_symbol
 _atom_site_label
 _atom_site_symmetry_multiplicity
 _atom_site_fract_x
 _atom_site_fract_y
 _atom_site_fract_z
 _atom_site_occupancy
  Nb  Nb0  1  0.05513000  0.64829000  0.64829000  1.0
  Nb  Nb1  1  0.64829100  0.05512900  0.64829000  1.0
  Nb  Nb2  1  0.64829100  0.64829000  0.64829000  1.0
  Nb  Nb3  1  0.64829100  0.64829000  0.05512900  1.0
  Se  Se4  1  0.34620300  0.88459900  0.88459900  1.0
  Se  Se5  1  0.88459800  0.34620400  0.88459900  1.0
  Se  Se6  1  0.88459800  0.88459900  0.88459900  1.0
  Se  Se7  1  0.88459800  0.88459900  0.34620400  1.0
  Br  Br8  1  0.85744400  0.38085200  0.38085200  1.0
  Br  Br9  1  0.38085100  0.85744500  0.38085200  1.0
  Br  Br10  1  0.38085100  0.38085200  0.38085200  1.0
  Br  Br11  1  0.38085100  0.38085200  0.85744500  1.0
