# generated using pymatgen
data_NbVO4
_symmetry_space_group_name_H-M   'P 1'
_cell_length_a   4.95856538
_cell_length_b   4.96968897
_cell_length_c   6.16014853
_cell_angle_alpha   111.13759099
_cell_angle_beta   111.07624830
_cell_angle_gamma   96.09957859
_symmetry_Int_Tables_number   1
_chemical_formula_structural   NbVO4
_chemical_formula_sum   'Nb2 V2 O8'
_cell_volume   127.16890753
_cell_formula_units_Z   2
loop_
 _symmetry_equiv_pos_site_id
 _symmetry_equiv_pos_as_xyz
  1  'x, y, z'
loop_
 _atom_site_type_symbol
 _atom_site_label
 _atom_site_symmetry_multiplicity
 _atom_site_fract_x
 _atom_site_fract_y
 _atom_site_fract_z
 _atom_site_occupancy
  Nb  Nb0  1  0.61826100  0.86826100  0.73652200  1.0
  Nb  Nb1  1  0.38173900  0.13173900  0.26347800  1.0
  V  V2  1  0.15635000  0.40635000  0.81270000  1.0
  V  V3  1  0.84365000  0.59365000  0.18730000  1.0
  O  O4  1  0.96911800  0.73064000  0.93102400  1.0
  O  O5  1  0.53809400  0.79961600  0.06897600  1.0
  O  O6  1  0.68548000  0.52146400  0.41911400  1.0
  O  O7  1  0.76636600  0.10235000  0.58088600  1.0
  O  O8  1  0.23363400  0.89765000  0.41911400  1.0
  O  O9  1  0.31452000  0.47853600  0.58088600  1.0
  O  O10  1  0.46190600  0.20038400  0.93102400  1.0
  O  O11  1  0.03088200  0.26936000  0.06897600  1.0
