# generated using pymatgen
data_Nd(BRu)2
_symmetry_space_group_name_H-M   'P 1'
_cell_length_a   5.62735458
_cell_length_b   5.62735458
_cell_length_c   5.98564114
_cell_angle_alpha   108.53922330
_cell_angle_beta   108.53922333
_cell_angle_gamma   108.88108107
_symmetry_Int_Tables_number   1
_chemical_formula_structural   Nd(BRu)2
_chemical_formula_sum   'Nd2 B4 Ru4'
_cell_volume   150.16954318
_cell_formula_units_Z   2
loop_
 _symmetry_equiv_pos_site_id
 _symmetry_equiv_pos_as_xyz
  1  'x, y, z'
loop_
 _atom_site_type_symbol
 _atom_site_label
 _atom_site_symmetry_multiplicity
 _atom_site_fract_x
 _atom_site_fract_y
 _atom_site_fract_z
 _atom_site_occupancy
  Nd  Nd0  1  0.00000000  0.00000000  0.00000000  1.0
  Nd  Nd1  1  0.25000000  0.75000000  0.50000000  1.0
  B  B2  1  0.31700500  0.68299500  0.00000000  1.0
  B  B3  1  0.68299500  0.31700500  0.00000000  1.0
  B  B4  1  0.56700500  0.43299500  0.50000000  1.0
  B  B5  1  0.93299500  0.06700500  0.50000000  1.0
  Ru  Ru6  1  0.63649500  0.63649500  0.27299000  1.0
  Ru  Ru7  1  0.36350500  0.36350500  0.72701000  1.0
  Ru  Ru8  1  0.61350500  0.11350500  0.22701000  1.0
  Ru  Ru9  1  0.88649500  0.38649500  0.77299000  1.0
