# generated using pymatgen
data_Nd(GeAu)2
_symmetry_space_group_name_H-M   'P 1'
_cell_length_a   4.43722000
_cell_length_b   4.43722000
_cell_length_c   6.18810518
_cell_angle_alpha   111.00983315
_cell_angle_beta   111.00983313
_cell_angle_gamma   90.00000002
_symmetry_Int_Tables_number   1
_chemical_formula_structural   Nd(GeAu)2
_chemical_formula_sum   'Nd1 Ge2 Au2'
_cell_volume   105.01448487
_cell_formula_units_Z   1
loop_
 _symmetry_equiv_pos_site_id
 _symmetry_equiv_pos_as_xyz
  1  'x, y, z'
loop_
 _atom_site_type_symbol
 _atom_site_label
 _atom_site_symmetry_multiplicity
 _atom_site_fract_x
 _atom_site_fract_y
 _atom_site_fract_z
 _atom_site_occupancy
  Nd  Nd0  1  0.00000000  0.00000000  0.00000000  1.0
  Ge  Ge1  1  0.61606300  0.61606300  0.23212600  1.0
  Ge  Ge2  1  0.38393700  0.38393700  0.76787400  1.0
  Au  Au3  1  0.75000000  0.25000000  0.50000000  1.0
  Au  Au4  1  0.25000000  0.75000000  0.50000000  1.0
