# generated using pymatgen
data_Nd2Zn5Sn
_symmetry_space_group_name_H-M   'P 1'
_cell_length_a   4.49174400
_cell_length_b   8.57902722
_cell_length_c   9.08156600
_cell_angle_alpha   90.00000000
_cell_angle_beta   90.00000000
_cell_angle_gamma   105.17608273
_symmetry_Int_Tables_number   1
_chemical_formula_structural   Nd2Zn5Sn
_chemical_formula_sum   'Nd4 Zn10 Sn2'
_cell_volume   337.75185039
_cell_formula_units_Z   2
loop_
 _symmetry_equiv_pos_site_id
 _symmetry_equiv_pos_as_xyz
  1  'x, y, z'
loop_
 _atom_site_type_symbol
 _atom_site_label
 _atom_site_symmetry_multiplicity
 _atom_site_fract_x
 _atom_site_fract_y
 _atom_site_fract_z
 _atom_site_occupancy
  Nd  Nd0  1  0.79503100  0.59006200  0.75000000  1.0
  Nd  Nd1  1  0.20496900  0.40993800  0.25000000  1.0
  Nd  Nd2  1  0.00000000  0.00000000  0.50000000  1.0
  Nd  Nd3  1  0.00000000  0.00000000  0.00000000  1.0
  Zn  Zn4  1  0.18591500  0.37183000  0.60778900  1.0
  Zn  Zn5  1  0.81408500  0.62817000  0.39221100  1.0
  Zn  Zn6  1  0.18591500  0.37183000  0.89221100  1.0
  Zn  Zn7  1  0.81408500  0.62817000  0.10778900  1.0
  Zn  Zn8  1  0.34402100  0.68804200  0.51627500  1.0
  Zn  Zn9  1  0.65597900  0.31195800  0.48372500  1.0
  Zn  Zn10  1  0.34402100  0.68804200  0.98372500  1.0
  Zn  Zn11  1  0.65597900  0.31195800  0.01627500  1.0
  Zn  Zn12  1  0.60541200  0.21082400  0.75000000  1.0
  Zn  Zn13  1  0.39458800  0.78917600  0.25000000  1.0
  Sn  Sn14  1  0.44601300  0.89202600  0.75000000  1.0
  Sn  Sn15  1  0.55398700  0.10797400  0.25000000  1.0
