# generated using pymatgen
data_Nd2Zn5Pb
_symmetry_space_group_name_H-M   'P 1'
_cell_length_a   4.50198300
_cell_length_b   8.63995786
_cell_length_c   9.14684700
_cell_angle_alpha   90.00000000
_cell_angle_beta   90.00000000
_cell_angle_gamma   105.10167610
_symmetry_Int_Tables_number   1
_chemical_formula_structural   Nd2Zn5Pb
_chemical_formula_sum   'Nd4 Zn10 Pb2'
_cell_volume   343.49737963
_cell_formula_units_Z   2
loop_
 _symmetry_equiv_pos_site_id
 _symmetry_equiv_pos_as_xyz
  1  'x, y, z'
loop_
 _atom_site_type_symbol
 _atom_site_label
 _atom_site_symmetry_multiplicity
 _atom_site_fract_x
 _atom_site_fract_y
 _atom_site_fract_z
 _atom_site_occupancy
  Nd  Nd0  1  0.79516600  0.59033200  0.75000000  1.0
  Nd  Nd1  1  0.20483400  0.40966800  0.25000000  1.0
  Nd  Nd2  1  0.00000000  0.00000000  0.50000000  1.0
  Nd  Nd3  1  0.00000000  0.00000000  0.00000000  1.0
  Zn  Zn4  1  0.18575900  0.37151800  0.60868600  1.0
  Zn  Zn5  1  0.81424100  0.62848200  0.39131400  1.0
  Zn  Zn6  1  0.18575900  0.37151800  0.89131400  1.0
  Zn  Zn7  1  0.81424100  0.62848200  0.10868600  1.0
  Zn  Zn8  1  0.34194900  0.68389800  0.51477100  1.0
  Zn  Zn9  1  0.65805100  0.31610200  0.48522900  1.0
  Zn  Zn10  1  0.34194900  0.68389800  0.98522900  1.0
  Zn  Zn11  1  0.65805100  0.31610200  0.01477100  1.0
  Zn  Zn12  1  0.60833200  0.21666400  0.75000000  1.0
  Zn  Zn13  1  0.39166800  0.78333600  0.25000000  1.0
  Pb  Pb14  1  0.44619400  0.89238800  0.75000000  1.0
  Pb  Pb15  1  0.55380600  0.10761200  0.25000000  1.0
