# generated using pymatgen
data_Nd3Au4
_symmetry_space_group_name_H-M   'P 1'
_cell_length_a   6.20553506
_cell_length_b   8.31825021
_cell_length_c   8.31825021
_cell_angle_alpha   114.03181031
_cell_angle_beta   104.39891049
_cell_angle_gamma   104.39891049
_symmetry_Int_Tables_number   1
_chemical_formula_structural   Nd3Au4
_chemical_formula_sum   'Nd6 Au8'
_cell_volume   348.86057042
_cell_formula_units_Z   2
loop_
 _symmetry_equiv_pos_site_id
 _symmetry_equiv_pos_as_xyz
  1  'x, y, z'
loop_
 _atom_site_type_symbol
 _atom_site_label
 _atom_site_symmetry_multiplicity
 _atom_site_fract_x
 _atom_site_fract_y
 _atom_site_fract_z
 _atom_site_occupancy
  Nd  Nd0  1  0.01517100  0.61611600  0.74384700  1.0
  Nd  Nd1  1  0.39905500  0.12773100  0.38388400  1.0
  Nd  Nd2  1  0.27132400  0.25615300  0.87226900  1.0
  Nd  Nd3  1  0.98482900  0.38388400  0.25615300  1.0
  Nd  Nd4  1  0.60094500  0.87226900  0.61611600  1.0
  Nd  Nd5  1  0.72867600  0.74384700  0.12773100  1.0
  Au  Au6  1  0.92858000  0.16130900  0.49079100  1.0
  Au  Au7  1  0.76727100  0.32948200  0.83869100  1.0
  Au  Au8  1  0.43778900  0.50920900  0.67051800  1.0
  Au  Au9  1  0.07142000  0.83869100  0.50920900  1.0
  Au  Au10  1  0.23272900  0.67051800  0.16130900  1.0
  Au  Au11  1  0.56221100  0.49079100  0.32948200  1.0
  Au  Au12  1  0.50000000  0.00000000  0.00000000  1.0
  Au  Au13  1  0.00000000  0.00000000  0.00000000  1.0
