# generated using pymatgen
data_Nd3FeO6
_symmetry_space_group_name_H-M   'P 1'
_cell_length_a   5.67456200
_cell_length_b   7.42948587
_cell_length_c   7.42948587
_cell_angle_alpha   102.78011773
_cell_angle_beta   90.00000000
_cell_angle_gamma   90.00000000
_symmetry_Int_Tables_number   1
_chemical_formula_structural   Nd3FeO6
_chemical_formula_sum   'Nd6 Fe2 O12'
_cell_volume   305.46061158
_cell_formula_units_Z   2
loop_
 _symmetry_equiv_pos_site_id
 _symmetry_equiv_pos_as_xyz
  1  'x, y, z'
loop_
 _atom_site_type_symbol
 _atom_site_label
 _atom_site_symmetry_multiplicity
 _atom_site_fract_x
 _atom_site_fract_y
 _atom_site_fract_z
 _atom_site_occupancy
  Nd  Nd0  1  0.96767000  0.41296700  0.20076000  1.0
  Nd  Nd1  1  0.46767000  0.58703300  0.79924000  1.0
  Nd  Nd2  1  0.96767000  0.79924000  0.58703300  1.0
  Nd  Nd3  1  0.46767000  0.20076000  0.41296700  1.0
  Nd  Nd4  1  0.42275800  0.10386400  0.89613600  1.0
  Nd  Nd5  1  0.92275800  0.89613600  0.10386400  1.0
  Fe  Fe6  1  0.49949100  0.69039100  0.30960900  1.0
  Fe  Fe7  1  0.99949100  0.30960900  0.69039100  1.0
  O  O8  1  0.66697800  0.28334600  0.71665400  1.0
  O  O9  1  0.16697800  0.71665400  0.28334600  1.0
  O  O10  1  0.64204300  0.53932700  0.46067300  1.0
  O  O11  1  0.14204300  0.46067300  0.53932700  1.0
  O  O12  1  0.67036600  0.60462000  0.08462400  1.0
  O  O13  1  0.17036600  0.39538000  0.91537600  1.0
  O  O14  1  0.67036600  0.91537600  0.39538000  1.0
  O  O15  1  0.17036600  0.08462400  0.60462000  1.0
  O  O16  1  0.69608100  0.17305500  0.14628300  1.0
  O  O17  1  0.19608100  0.82694500  0.85371700  1.0
  O  O18  1  0.69608100  0.85371700  0.82694500  1.0
  O  O19  1  0.19608100  0.14628300  0.17305500  1.0
