# generated using pymatgen
data_Nd3GaO6
_symmetry_space_group_name_H-M   'P 1'
_cell_length_a   5.63603000
_cell_length_b   7.44099990
_cell_length_c   7.44099990
_cell_angle_alpha   102.84610313
_cell_angle_beta   90.00000000
_cell_angle_gamma   90.00000000
_symmetry_Int_Tables_number   1
_chemical_formula_structural   Nd3GaO6
_chemical_formula_sum   'Nd6 Ga2 O12'
_cell_volume   304.24782962
_cell_formula_units_Z   2
loop_
 _symmetry_equiv_pos_site_id
 _symmetry_equiv_pos_as_xyz
  1  'x, y, z'
loop_
 _atom_site_type_symbol
 _atom_site_label
 _atom_site_symmetry_multiplicity
 _atom_site_fract_x
 _atom_site_fract_y
 _atom_site_fract_z
 _atom_site_occupancy
  Nd  Nd0  1  0.07552600  0.60348400  0.39651600  1.0
  Nd  Nd1  1  0.57552600  0.39651600  0.60348400  1.0
  Nd  Nd2  1  0.03149900  0.08714600  0.29962300  1.0
  Nd  Nd3  1  0.53149900  0.91285400  0.70037700  1.0
  Nd  Nd4  1  0.03149900  0.70037700  0.91285400  1.0
  Nd  Nd5  1  0.53149900  0.29962300  0.08714600  1.0
  Ga  Ga6  1  0.49741400  0.80805600  0.19194400  1.0
  Ga  Ga7  1  0.99741400  0.19194400  0.80805600  1.0
  O  O8  1  0.82498900  0.78533600  0.21466400  1.0
  O  O9  1  0.32498900  0.21466400  0.78533600  1.0
  O  O10  1  0.36564100  0.95808200  0.04191800  1.0
  O  O11  1  0.86564100  0.04191800  0.95808200  1.0
  O  O12  1  0.30143800  0.32751500  0.35381400  1.0
  O  O13  1  0.80143800  0.67248500  0.64618600  1.0
  O  O14  1  0.30143800  0.64618600  0.67248500  1.0
  O  O15  1  0.80143800  0.35381400  0.32751500  1.0
  O  O16  1  0.82935800  0.41529900  0.89332700  1.0
  O  O17  1  0.32935800  0.58470100  0.10667300  1.0
  O  O18  1  0.82935800  0.10667300  0.58470100  1.0
  O  O19  1  0.32935800  0.89332700  0.41529900  1.0
