# generated using pymatgen
data_Nd3In
_symmetry_space_group_name_H-M   'P 1'
_cell_length_a   5.61954200
_cell_length_b   7.20580200
_cell_length_c   7.20580149
_cell_angle_alpha   120.00000233
_cell_angle_beta   90.00000000
_cell_angle_gamma   90.00000000
_symmetry_Int_Tables_number   1
_chemical_formula_structural   Nd3In
_chemical_formula_sum   'Nd6 In2'
_cell_volume   252.69471620
_cell_formula_units_Z   2
loop_
 _symmetry_equiv_pos_site_id
 _symmetry_equiv_pos_as_xyz
  1  'x, y, z'
loop_
 _atom_site_type_symbol
 _atom_site_label
 _atom_site_symmetry_multiplicity
 _atom_site_fract_x
 _atom_site_fract_y
 _atom_site_fract_z
 _atom_site_occupancy
  Nd  Nd0  1  0.25000000  0.17619000  0.35238000  1.0
  Nd  Nd1  1  0.25000000  0.64761900  0.82380900  1.0
  Nd  Nd2  1  0.25000000  0.17619000  0.82380900  1.0
  Nd  Nd3  1  0.75000000  0.82381000  0.64762000  1.0
  Nd  Nd4  1  0.75000000  0.35238100  0.17619100  1.0
  Nd  Nd5  1  0.75000000  0.82381000  0.17619100  1.0
  In  In6  1  0.75000000  0.33333333  0.66666667  1.0
  In  In7  1  0.25000000  0.66666667  0.33333333  1.0
