# generated using pymatgen
data_Nd3Sc
_symmetry_space_group_name_H-M   'P 1'
_cell_length_a   5.81892100
_cell_length_b   7.21062200
_cell_length_c   7.21062215
_cell_angle_alpha   60.00000068
_cell_angle_beta   90.00000000
_cell_angle_gamma   90.00000000
_symmetry_Int_Tables_number   1
_chemical_formula_structural   Nd3Sc
_chemical_formula_sum   'Nd6 Sc2'
_cell_volume   262.01042010
_cell_formula_units_Z   2
loop_
 _symmetry_equiv_pos_site_id
 _symmetry_equiv_pos_as_xyz
  1  'x, y, z'
loop_
 _atom_site_type_symbol
 _atom_site_label
 _atom_site_symmetry_multiplicity
 _atom_site_fract_x
 _atom_site_fract_y
 _atom_site_fract_z
 _atom_site_occupancy
  Nd  Nd0  1  0.75000000  0.17043900  0.17044000  1.0
  Nd  Nd1  1  0.75000000  0.65912100  0.17044000  1.0
  Nd  Nd2  1  0.25000000  0.82956100  0.82956000  1.0
  Nd  Nd3  1  0.25000000  0.34087900  0.82956000  1.0
  Nd  Nd4  1  0.75000000  0.17043900  0.65912200  1.0
  Nd  Nd5  1  0.25000000  0.82956100  0.34087800  1.0
  Sc  Sc6  1  0.75000000  0.66666667  0.66666667  1.0
  Sc  Sc7  1  0.25000000  0.33333333  0.33333333  1.0
