# generated using pymatgen
data_Nd5AgS8
_symmetry_space_group_name_H-M   'P 1'
_cell_length_a   7.43465390
_cell_length_b   7.43465390
_cell_length_c   7.43465390
_cell_angle_alpha   108.98003447
_cell_angle_beta   109.71737059
_cell_angle_gamma   109.71737059
_symmetry_Int_Tables_number   1
_chemical_formula_structural   Nd5AgS8
_chemical_formula_sum   'Nd5 Ag1 S8'
_cell_volume   316.32714574
_cell_formula_units_Z   1
loop_
 _symmetry_equiv_pos_site_id
 _symmetry_equiv_pos_as_xyz
  1  'x, y, z'
loop_
 _atom_site_type_symbol
 _atom_site_label
 _atom_site_symmetry_multiplicity
 _atom_site_fract_x
 _atom_site_fract_y
 _atom_site_fract_z
 _atom_site_occupancy
  Nd  Nd0  1  0.11823000  0.88274300  0.49772400  1.0
  Nd  Nd1  1  0.61498000  0.23548600  0.11725600  1.0
  Nd  Nd2  1  0.88177000  0.37949400  0.76451300  1.0
  Nd  Nd3  1  0.50000000  0.75000000  0.25000000  1.0
  Nd  Nd4  1  0.38502000  0.50227700  0.62050700  1.0
  Ag  Ag5  1  0.00000000  0.00000000  0.00000000  1.0
  S  S6  1  0.74902600  0.63141400  0.02273300  1.0
  S  S7  1  0.10637400  0.49795200  0.23861800  1.0
  S  S8  1  0.60868000  0.97726600  0.72629200  1.0
  S  S9  1  0.39132000  0.11761200  0.36858600  1.0
  S  S10  1  0.25933400  0.76138200  0.86775600  1.0
  S  S11  1  0.89362600  0.13224400  0.39157800  1.0
  S  S12  1  0.25097400  0.27370800  0.88238800  1.0
  S  S13  1  0.74066600  0.60842200  0.50204800  1.0
