# generated using pymatgen
data_NdBr2
_symmetry_space_group_name_H-M   'P 1'
_cell_length_a   4.01321711
_cell_length_b   4.01321711
_cell_length_c   16.29276400
_cell_angle_alpha   90.00000000
_cell_angle_beta   90.00000000
_cell_angle_gamma   119.19234803
_symmetry_Int_Tables_number   1
_chemical_formula_structural   NdBr2
_chemical_formula_sum   'Nd2 Br4'
_cell_volume   229.08041750
_cell_formula_units_Z   2
loop_
 _symmetry_equiv_pos_site_id
 _symmetry_equiv_pos_as_xyz
  1  'x, y, z'
loop_
 _atom_site_type_symbol
 _atom_site_label
 _atom_site_symmetry_multiplicity
 _atom_site_fract_x
 _atom_site_fract_y
 _atom_site_fract_z
 _atom_site_occupancy
  Br  Br4  1  0.16436650  0.33563350  0.38446100  1.0
  Br  Br5  1  0.83563350  0.66436650  0.61553900  1.0
  Br  Br6  1  0.33563350  0.16436650  0.88446100  1.0
  Br  Br7  1  0.66436650  0.83563350  0.11553900  1.0
  Nd  Nd0  1  0.00000000  0.50000000  0.00000000  1.0
  Nd  Nd2  1  0.50000000  1.00000000  0.50000000  1.0
