# generated using pymatgen
data_NdCd3
_symmetry_space_group_name_H-M   'P 1'
_cell_length_a   5.05589700
_cell_length_b   6.78629400
_cell_length_c   6.78629400
_cell_angle_alpha   120.00000001
_cell_angle_beta   90.00000000
_cell_angle_gamma   90.00000000
_symmetry_Int_Tables_number   1
_chemical_formula_structural   NdCd3
_chemical_formula_sum   'Nd2 Cd6'
_cell_volume   201.64812611
_cell_formula_units_Z   2
loop_
 _symmetry_equiv_pos_site_id
 _symmetry_equiv_pos_as_xyz
  1  'x, y, z'
loop_
 _atom_site_type_symbol
 _atom_site_label
 _atom_site_symmetry_multiplicity
 _atom_site_fract_x
 _atom_site_fract_y
 _atom_site_fract_z
 _atom_site_occupancy
  Nd  Nd0  1  0.75000000  0.33333333  0.66666667  1.0
  Nd  Nd1  1  0.25000000  0.66666667  0.33333333  1.0
  Cd  Cd2  1  0.25000000  0.16073100  0.32146200  1.0
  Cd  Cd3  1  0.25000000  0.67853800  0.83926900  1.0
  Cd  Cd4  1  0.25000000  0.16073100  0.83926900  1.0
  Cd  Cd5  1  0.75000000  0.83926900  0.67853800  1.0
  Cd  Cd6  1  0.75000000  0.32146200  0.16073100  1.0
  Cd  Cd7  1  0.75000000  0.83926900  0.16073100  1.0
