# generated using pymatgen
data_NdCuSn
_symmetry_space_group_name_H-M   'P 1'
_cell_length_a   4.62056600
_cell_length_b   4.62056640
_cell_length_c   7.63524300
_cell_angle_alpha   90.00000000
_cell_angle_beta   90.00000000
_cell_angle_gamma   119.99999712
_symmetry_Int_Tables_number   1
_chemical_formula_structural   NdCuSn
_chemical_formula_sum   'Nd2 Cu2 Sn2'
_cell_volume   141.17048324
_cell_formula_units_Z   2
loop_
 _symmetry_equiv_pos_site_id
 _symmetry_equiv_pos_as_xyz
  1  'x, y, z'
loop_
 _atom_site_type_symbol
 _atom_site_label
 _atom_site_symmetry_multiplicity
 _atom_site_fract_x
 _atom_site_fract_y
 _atom_site_fract_z
 _atom_site_occupancy
  Nd  Nd0  1  0.00000000  0.00000000  0.50780100  1.0
  Nd  Nd1  1  0.00000000  0.00000000  0.00780100  1.0
  Cu  Cu2  1  0.33333333  0.66666667  0.70072000  1.0
  Cu  Cu3  1  0.66666667  0.33333333  0.20072000  1.0
  Sn  Sn4  1  0.66666667  0.33333333  0.77547800  1.0
  Sn  Sn5  1  0.33333333  0.66666667  0.27547800  1.0
