# generated using pymatgen
data_NdHo3
_symmetry_space_group_name_H-M   'P 1'
_cell_length_a   5.70100700
_cell_length_b   7.26307600
_cell_length_c   7.26307572
_cell_angle_alpha   120.00000128
_cell_angle_beta   90.00000000
_cell_angle_gamma   90.00000000
_symmetry_Int_Tables_number   1
_chemical_formula_structural   NdHo3
_chemical_formula_sum   'Nd2 Ho6'
_cell_volume   260.44939977
_cell_formula_units_Z   2
loop_
 _symmetry_equiv_pos_site_id
 _symmetry_equiv_pos_as_xyz
  1  'x, y, z'
loop_
 _atom_site_type_symbol
 _atom_site_label
 _atom_site_symmetry_multiplicity
 _atom_site_fract_x
 _atom_site_fract_y
 _atom_site_fract_z
 _atom_site_occupancy
  Nd  Nd0  1  0.25000000  0.66666667  0.33333333  1.0
  Nd  Nd1  1  0.75000000  0.33333333  0.66666667  1.0
  Ho  Ho2  1  0.75000000  0.83483200  0.16516800  1.0
  Ho  Ho3  1  0.25000000  0.16516800  0.83483200  1.0
  Ho  Ho4  1  0.25000000  0.66966400  0.83483200  1.0
  Ho  Ho5  1  0.25000000  0.16516800  0.33033600  1.0
  Ho  Ho6  1  0.75000000  0.33033600  0.16516800  1.0
  Ho  Ho7  1  0.75000000  0.83483200  0.66966400  1.0
