# generated using pymatgen
data_NdMgTl
_symmetry_space_group_name_H-M   'P 1'
_cell_length_a   4.74872500
_cell_length_b   7.77502600
_cell_length_c   7.77502597
_cell_angle_alpha   120.00000012
_cell_angle_beta   90.00000000
_cell_angle_gamma   90.00000000
_symmetry_Int_Tables_number   1
_chemical_formula_structural   NdMgTl
_chemical_formula_sum   'Nd3 Mg3 Tl3'
_cell_volume   248.60585323
_cell_formula_units_Z   3
loop_
 _symmetry_equiv_pos_site_id
 _symmetry_equiv_pos_as_xyz
  1  'x, y, z'
loop_
 _atom_site_type_symbol
 _atom_site_label
 _atom_site_symmetry_multiplicity
 _atom_site_fract_x
 _atom_site_fract_y
 _atom_site_fract_z
 _atom_site_occupancy
  Nd  Nd0  1  1.00000000  0.42540500  0.42540500  1.0
  Nd  Nd1  1  0.00000000  0.00000000  0.57459500  1.0
  Nd  Nd2  1  1.00000000  0.57459500  1.00000000  1.0
  Mg  Mg3  1  0.50000000  0.75776500  0.75776500  1.0
  Mg  Mg4  1  0.50000000  0.00000000  0.24223500  1.0
  Mg  Mg5  1  0.50000000  0.24223500  1.00000000  1.0
  Tl  Tl6  1  0.50000000  0.66666667  0.33333333  1.0
  Tl  Tl7  1  0.50000000  0.33333333  0.66666667  1.0
  Tl  Tl8  1  0.00000000  0.00000000  0.00000000  1.0
