# generated using pymatgen
data_NdSi3Os
_symmetry_space_group_name_H-M   'P 1'
_cell_length_a   4.25811200
_cell_length_b   4.25811200
_cell_length_c   5.81959387
_cell_angle_alpha   111.45945379
_cell_angle_beta   111.45945378
_cell_angle_gamma   90.00000000
_symmetry_Int_Tables_number   1
_chemical_formula_structural   NdSi3Os
_chemical_formula_sum   'Nd1 Si3 Os1'
_cell_volume   90.29771452
_cell_formula_units_Z   1
loop_
 _symmetry_equiv_pos_site_id
 _symmetry_equiv_pos_as_xyz
  1  'x, y, z'
loop_
 _atom_site_type_symbol
 _atom_site_label
 _atom_site_symmetry_multiplicity
 _atom_site_fract_x
 _atom_site_fract_y
 _atom_site_fract_z
 _atom_site_occupancy
  Nd  Nd0  1  0.99907800  0.99907800  0.99815600  1.0
  Si  Si1  1  0.41808100  0.41808100  0.83616200  1.0
  Si  Si2  1  0.26098000  0.76098000  0.52196000  1.0
  Si  Si3  1  0.76098000  0.26098000  0.52196000  1.0
  Os  Os4  1  0.65488100  0.65488100  0.30976200  1.0
