# generated using pymatgen
data_NdSn2
_symmetry_space_group_name_H-M   'P 1'
_cell_length_a   4.52373800
_cell_length_b   4.60504800
_cell_length_c   8.41525947
_cell_angle_alpha   90.00000000
_cell_angle_beta   105.59179262
_cell_angle_gamma   90.00000000
_symmetry_Int_Tables_number   1
_chemical_formula_structural   NdSn2
_chemical_formula_sum   'Nd2 Sn4'
_cell_volume   168.85583658
_cell_formula_units_Z   2
loop_
 _symmetry_equiv_pos_site_id
 _symmetry_equiv_pos_as_xyz
  1  'x, y, z'
loop_
 _atom_site_type_symbol
 _atom_site_label
 _atom_site_symmetry_multiplicity
 _atom_site_fract_x
 _atom_site_fract_y
 _atom_site_fract_z
 _atom_site_occupancy
  Nd  Nd0  1  0.85527300  1.00000000  0.71054600  1.0
  Nd  Nd1  1  0.14472700  0.00000000  0.28945400  1.0
  Sn  Sn2  1  0.50000000  1.00000000  0.00000000  1.0
  Sn  Sn3  1  0.00000000  0.50000000  0.00000000  1.0
  Sn  Sn4  1  0.68511100  0.50000000  0.37022200  1.0
  Sn  Sn5  1  0.31488900  0.50000000  0.62977800  1.0
