# generated using pymatgen
data_Ni3(Sn2Pt)2
_symmetry_space_group_name_H-M   'P 1'
_cell_length_a   4.21192020
_cell_length_b   4.21192020
_cell_length_c   10.62016802
_cell_angle_alpha   90.00656227
_cell_angle_beta   90.00656227
_cell_angle_gamma   60.01539096
_symmetry_Int_Tables_number   1
_chemical_formula_structural   Ni3(Sn2Pt)2
_chemical_formula_sum   'Ni3 Sn4 Pt2'
_cell_volume   163.18852542
_cell_formula_units_Z   1
loop_
 _symmetry_equiv_pos_site_id
 _symmetry_equiv_pos_as_xyz
  1  'x, y, z'
loop_
 _atom_site_type_symbol
 _atom_site_label
 _atom_site_symmetry_multiplicity
 _atom_site_fract_x
 _atom_site_fract_y
 _atom_site_fract_z
 _atom_site_occupancy
  Ni  Ni0  1  0.66651500  0.66651500  0.12920500  1.0
  Ni  Ni1  1  0.00001300  0.00001300  0.24819900  1.0
  Ni  Ni2  1  0.00007100  0.00007000  0.74741200  1.0
  Sn  Sn3  1  0.66659900  0.66659800  0.37610300  1.0
  Sn  Sn4  1  0.66666667  0.66673033  0.86332400  1.0
  Sn  Sn5  1  0.33341300  0.33341200  0.13503800  1.0
  Sn  Sn6  1  0.33333333  0.33333333  0.63173400  1.0
  Pt  Pt7  1  0.00001100  0.00001100  0.99372600  1.0
  Pt  Pt8  1  0.00003500  0.00003400  0.50026000  1.0
