# generated using pymatgen
data_Ni3P
_symmetry_space_group_name_H-M   'P 1'
_cell_length_a   4.37563400
_cell_length_b   6.68465204
_cell_length_c   6.68465204
_cell_angle_alpha   83.85076535
_cell_angle_beta   70.89565327
_cell_angle_gamma   70.89565327
_symmetry_Int_Tables_number   1
_chemical_formula_structural   Ni3P
_chemical_formula_sum   'Ni12 P4'
_cell_volume   174.57917523
_cell_formula_units_Z   4
loop_
 _symmetry_equiv_pos_site_id
 _symmetry_equiv_pos_as_xyz
  1  'x, y, z'
loop_
 _atom_site_type_symbol
 _atom_site_label
 _atom_site_symmetry_multiplicity
 _atom_site_fract_x
 _atom_site_fract_y
 _atom_site_fract_z
 _atom_site_occupancy
  Ni  Ni0  1  0.12870700  0.19063000  0.03356200  1.0
  Ni  Ni1  1  0.35289900  0.80937000  0.96643700  1.0
  Ni  Ni2  1  0.68066400  0.96643700  0.19063000  1.0
  Ni  Ni3  1  0.83773100  0.03356300  0.80936900  1.0
  Ni  Ni4  1  0.94776800  0.39464800  0.66469800  1.0
  Ni  Ni5  1  0.00711400  0.60535200  0.33530200  1.0
  Ni  Ni6  1  0.65758400  0.33530200  0.39464800  1.0
  Ni  Ni7  1  0.38753400  0.66469800  0.60535200  1.0
  Ni  Ni8  1  0.52898400  0.39157600  0.05068200  1.0
  Ni  Ni9  1  0.97124200  0.60842400  0.94931800  1.0
  Ni  Ni10  1  0.07944000  0.94931800  0.39157600  1.0
  Ni  Ni11  1  0.42033400  0.05068200  0.60842400  1.0
  P  P12  1  0.43635700  0.33077400  0.76038200  1.0
  P  P13  1  0.52751300  0.66922600  0.23961800  1.0
  P  P14  1  0.23286900  0.23961800  0.33077400  1.0
  P  P15  1  0.80326100  0.76038200  0.66922600  1.0
