# generated using pymatgen
data_NiAgO2
_symmetry_space_group_name_H-M   'P 1'
_cell_length_a   2.92139572
_cell_length_b   3.03847694
_cell_length_c   6.32782182
_cell_angle_alpha   78.35457292
_cell_angle_beta   89.93434238
_cell_angle_gamma   61.30881489
_symmetry_Int_Tables_number   1
_chemical_formula_structural   NiAgO2
_chemical_formula_sum   'Ni1 Ag1 O2'
_cell_volume   47.95805034
_cell_formula_units_Z   1
loop_
 _symmetry_equiv_pos_site_id
 _symmetry_equiv_pos_as_xyz
  1  'x, y, z'
loop_
 _atom_site_type_symbol
 _atom_site_label
 _atom_site_symmetry_multiplicity
 _atom_site_fract_x
 _atom_site_fract_y
 _atom_site_fract_z
 _atom_site_occupancy
  Ag  Ag4  1  0.00001875  0.99996500  0.00000275  1.0
  Ni  Ni0  1  0.49999300  0.00003700  0.50000100  1.0
  O  O8  1  0.89366075  0.21200125  0.66310925  1.0
  O  O12  1  0.10632600  0.78799700  0.33688700  1.0
