# generated using pymatgen
data_NiPtO2
_symmetry_space_group_name_H-M   'P 1'
_cell_length_a   2.91564880
_cell_length_b   2.92290893
_cell_length_c   6.31569517
_cell_angle_alpha   76.79296224
_cell_angle_beta   76.83243572
_cell_angle_gamma   60.60739380
_symmetry_Int_Tables_number   1
_chemical_formula_structural   NiPtO2
_chemical_formula_sum   'Ni1 Pt1 O2'
_cell_volume   45.22834790
_cell_formula_units_Z   1
loop_
 _symmetry_equiv_pos_site_id
 _symmetry_equiv_pos_as_xyz
  1  'x, y, z'
loop_
 _atom_site_type_symbol
 _atom_site_label
 _atom_site_symmetry_multiplicity
 _atom_site_fract_x
 _atom_site_fract_y
 _atom_site_fract_z
 _atom_site_occupancy
  Ni  Ni0  1  0.49999575  0.50003075  0.49998350  1.0
  O  O8  1  0.89156875  0.89183475  0.32095400  1.0
  O  O12  1  0.10844100  0.10814150  0.67905925  1.0
  Pt  Pt4  1  0.99999450  0.99999250  0.00000350  1.0
