# generated using pymatgen
data_NpF5
_symmetry_space_group_name_H-M   'P 1'
_cell_length_a   4.49587800
_cell_length_b   5.36218726
_cell_length_c   5.36218726
_cell_angle_alpha   79.87793481
_cell_angle_beta   65.21461374
_cell_angle_gamma   65.21461374
_symmetry_Int_Tables_number   1
_chemical_formula_structural   NpF5
_chemical_formula_sum   'Np1 F5'
_cell_volume   106.55151045
_cell_formula_units_Z   1
loop_
 _symmetry_equiv_pos_site_id
 _symmetry_equiv_pos_as_xyz
  1  'x, y, z'
loop_
 _atom_site_type_symbol
 _atom_site_label
 _atom_site_symmetry_multiplicity
 _atom_site_fract_x
 _atom_site_fract_y
 _atom_site_fract_z
 _atom_site_occupancy
  Np  Np0  1  0.00000000  0.00000000  0.00000000  1.0
  F  F1  1  0.10157300  0.17315100  0.62370300  1.0
  F  F2  1  0.89842700  0.82684900  0.37629700  1.0
  F  F3  1  0.72527600  0.37629700  0.17315100  1.0
  F  F4  1  0.27472400  0.62370300  0.82684900  1.0
  F  F5  1  0.50000000  0.00000000  1.00000000  1.0
