# generated using pymatgen
data_NpSi2
_symmetry_space_group_name_H-M   'P 1'
_cell_length_a   3.93197800
_cell_length_b   3.93197800
_cell_length_c   7.64967590
_cell_angle_alpha   104.89229972
_cell_angle_beta   104.89229971
_cell_angle_gamma   90.00000001
_symmetry_Int_Tables_number   1
_chemical_formula_structural   NpSi2
_chemical_formula_sum   'Np2 Si4'
_cell_volume   110.17924432
_cell_formula_units_Z   2
loop_
 _symmetry_equiv_pos_site_id
 _symmetry_equiv_pos_as_xyz
  1  'x, y, z'
loop_
 _atom_site_type_symbol
 _atom_site_label
 _atom_site_symmetry_multiplicity
 _atom_site_fract_x
 _atom_site_fract_y
 _atom_site_fract_z
 _atom_site_occupancy
  Np  Np0  1  0.00000000  0.00000000  0.00000000  1.0
  Np  Np1  1  0.75000000  0.25000000  0.50000000  1.0
  Si  Si2  1  0.33218600  0.83218600  0.66437200  1.0
  Si  Si3  1  0.58218600  0.58218600  0.16437200  1.0
  Si  Si4  1  0.16781400  0.66781400  0.33562800  1.0
  Si  Si5  1  0.41781400  0.41781400  0.83562800  1.0
