# generated using pymatgen
data_Pm3Tm
_symmetry_space_group_name_H-M   'P 1'
_cell_length_a   5.88683400
_cell_length_b   7.29471000
_cell_length_c   7.29470898
_cell_angle_alpha   120.00000461
_cell_angle_beta   90.00000000
_cell_angle_gamma   90.00000000
_symmetry_Int_Tables_number   1
_chemical_formula_structural   Pm3Tm
_chemical_formula_sum   'Pm6 Tm2'
_cell_volume   271.28663749
_cell_formula_units_Z   2
loop_
 _symmetry_equiv_pos_site_id
 _symmetry_equiv_pos_as_xyz
  1  'x, y, z'
loop_
 _atom_site_type_symbol
 _atom_site_label
 _atom_site_symmetry_multiplicity
 _atom_site_fract_x
 _atom_site_fract_y
 _atom_site_fract_z
 _atom_site_occupancy
  Pm  Pm0  1  0.75000000  0.83213900  0.16786100  1.0
  Pm  Pm1  1  0.75000000  0.33572200  0.16786100  1.0
  Pm  Pm2  1  0.75000000  0.83213900  0.66427800  1.0
  Pm  Pm3  1  0.25000000  0.16786100  0.83213900  1.0
  Pm  Pm4  1  0.25000000  0.66427800  0.83213900  1.0
  Pm  Pm5  1  0.25000000  0.16786100  0.33572200  1.0
  Tm  Tm6  1  0.25000000  0.66666667  0.33333333  1.0
  Tm  Tm7  1  0.75000000  0.33333333  0.66666667  1.0
