# generated using pymatgen
data_PmAu3
_symmetry_space_group_name_H-M   'P 1'
_cell_length_a   4.84304600
_cell_length_b   6.43817800
_cell_length_c   6.43817739
_cell_angle_alpha   120.00000312
_cell_angle_beta   90.00000000
_cell_angle_gamma   90.00000000
_symmetry_Int_Tables_number   1
_chemical_formula_structural   PmAu3
_chemical_formula_sum   'Pm2 Au6'
_cell_volume   173.85017421
_cell_formula_units_Z   2
loop_
 _symmetry_equiv_pos_site_id
 _symmetry_equiv_pos_as_xyz
  1  'x, y, z'
loop_
 _atom_site_type_symbol
 _atom_site_label
 _atom_site_symmetry_multiplicity
 _atom_site_fract_x
 _atom_site_fract_y
 _atom_site_fract_z
 _atom_site_occupancy
  Pm  Pm0  1  0.75000000  0.33333333  0.66666667  1.0
  Pm  Pm1  1  0.25000000  0.66666667  0.33333333  1.0
  Au  Au2  1  0.25000000  0.15666400  0.31332800  1.0
  Au  Au3  1  0.25000000  0.68667300  0.84333700  1.0
  Au  Au4  1  0.25000000  0.15666400  0.84333700  1.0
  Au  Au5  1  0.75000000  0.84333600  0.68667200  1.0
  Au  Au6  1  0.75000000  0.31332700  0.15666300  1.0
  Au  Au7  1  0.75000000  0.84333600  0.15666300  1.0
