# generated using pymatgen
data_PmBr3
_symmetry_space_group_name_H-M   'P 1'
_cell_length_a   3.87198700
_cell_length_b   10.53808800
_cell_length_c   10.53808807
_cell_angle_alpha   119.99999977
_cell_angle_beta   90.00000000
_cell_angle_gamma   90.00000000
_symmetry_Int_Tables_number   1
_chemical_formula_structural   PmBr3
_chemical_formula_sum   'Pm2 Br6'
_cell_volume   372.38156068
_cell_formula_units_Z   2
loop_
 _symmetry_equiv_pos_site_id
 _symmetry_equiv_pos_as_xyz
  1  'x, y, z'
loop_
 _atom_site_type_symbol
 _atom_site_label
 _atom_site_symmetry_multiplicity
 _atom_site_fract_x
 _atom_site_fract_y
 _atom_site_fract_z
 _atom_site_occupancy
  Pm  Pm0  1  0.75000000  0.33333333  0.66666667  1.0
  Pm  Pm1  1  0.25000000  0.66666667  0.33333333  1.0
  Br  Br2  1  0.25000000  0.21493300  0.42986600  1.0
  Br  Br3  1  0.25000000  0.57013400  0.78506700  1.0
  Br  Br4  1  0.25000000  0.21493300  0.78506700  1.0
  Br  Br5  1  0.75000000  0.78506700  0.57013400  1.0
  Br  Br6  1  0.75000000  0.42986600  0.21493300  1.0
  Br  Br7  1  0.75000000  0.78506700  0.21493300  1.0
