# generated using pymatgen
data_Pr(CuO2)2
_symmetry_space_group_name_H-M   'P 1'
_cell_length_a   5.88968000
_cell_length_b   6.42655573
_cell_length_c   5.88968000
_cell_angle_alpha   117.27294515
_cell_angle_beta   90.00000000
_cell_angle_gamma   117.27294515
_symmetry_Int_Tables_number   1
_chemical_formula_structural   Pr(CuO2)2
_chemical_formula_sum   'Pr2 Cu4 O8'
_cell_volume   169.78317842
_cell_formula_units_Z   2
loop_
 _symmetry_equiv_pos_site_id
 _symmetry_equiv_pos_as_xyz
  1  'x, y, z'
loop_
 _atom_site_type_symbol
 _atom_site_label
 _atom_site_symmetry_multiplicity
 _atom_site_fract_x
 _atom_site_fract_y
 _atom_site_fract_z
 _atom_site_occupancy
  Pr  Pr0  1  0.00000000  0.00000000  0.00000000  1.0
  Pr  Pr1  1  0.25000000  0.50000000  0.75000000  1.0
  Cu  Cu2  1  0.12500000  0.75000000  0.37500000  1.0
  Cu  Cu3  1  0.62500000  0.25000000  0.37500000  1.0
  Cu  Cu4  1  0.62500000  0.25000000  0.87500000  1.0
  Cu  Cu5  1  0.62500000  0.75000000  0.37500000  1.0
  O  O6  1  0.65536800  0.59894000  0.57885600  1.0
  O  O7  1  0.30642800  0.90106000  0.72991600  1.0
  O  O8  1  0.27008400  0.09894000  0.40536800  1.0
  O  O9  1  0.42114400  0.40106000  0.05642800  1.0
  O  O10  1  0.82885600  0.09894000  0.69357200  1.0
  O  O11  1  0.97991600  0.40106000  0.34463200  1.0
  O  O12  1  0.94357200  0.59894000  0.02008400  1.0
  O  O13  1  0.59463200  0.90106000  0.17114400  1.0
