# generated using pymatgen
data_Pr2EuS4
_symmetry_space_group_name_H-M   'P 1'
_cell_length_a   7.51560884
_cell_length_b   7.51560884
_cell_length_c   7.51560884
_cell_angle_alpha   109.54020188
_cell_angle_beta   109.43674103
_cell_angle_gamma   109.43674103
_symmetry_Int_Tables_number   1
_chemical_formula_structural   Pr2EuS4
_chemical_formula_sum   'Pr4 Eu2 S8'
_cell_volume   326.79104170
_cell_formula_units_Z   2
loop_
 _symmetry_equiv_pos_site_id
 _symmetry_equiv_pos_as_xyz
  1  'x, y, z'
loop_
 _atom_site_type_symbol
 _atom_site_label
 _atom_site_symmetry_multiplicity
 _atom_site_fract_x
 _atom_site_fract_y
 _atom_site_fract_z
 _atom_site_occupancy
  Pr  Pr0  1  0.87757000  0.25257000  0.87500000  1.0
  Pr  Pr1  1  0.62243000  0.62500000  0.74743000  1.0
  Pr  Pr2  1  0.12243000  0.99743000  0.37500000  1.0
  Pr  Pr3  1  0.37757000  0.12500000  0.00257000  1.0
  Eu  Eu4  1  0.00000000  0.50000000  0.50000000  1.0
  Eu  Eu5  1  0.50000000  0.75000000  0.25000000  1.0
  S  S6  1  0.09984900  0.72896500  0.97919600  1.0
  S  S7  1  0.59984900  0.22919600  0.47896500  1.0
  S  S8  1  0.25023200  0.37088500  0.27103500  1.0
  S  S9  1  0.40015100  0.87911600  0.62934800  1.0
  S  S10  1  0.24976800  0.37065200  0.77080300  1.0
  S  S11  1  0.75023200  0.52103500  0.12088500  1.0
  S  S12  1  0.74976800  0.02080300  0.12065200  1.0
  S  S13  1  0.90015100  0.87934800  0.62911600  1.0
