# generated using pymatgen
data_Pr2Ge3
_symmetry_space_group_name_H-M   'P 1'
_cell_length_a   4.13705000
_cell_length_b   4.23271600
_cell_length_c   7.81589065
_cell_angle_alpha   105.71046680
_cell_angle_beta   105.34653338
_cell_angle_gamma   90.00000000
_symmetry_Int_Tables_number   1
_chemical_formula_structural   Pr2Ge3
_chemical_formula_sum   'Pr2 Ge3'
_cell_volume   126.67381288
_cell_formula_units_Z   1
loop_
 _symmetry_equiv_pos_site_id
 _symmetry_equiv_pos_as_xyz
  1  'x, y, z'
loop_
 _atom_site_type_symbol
 _atom_site_label
 _atom_site_symmetry_multiplicity
 _atom_site_fract_x
 _atom_site_fract_y
 _atom_site_fract_z
 _atom_site_occupancy
  Pr  Pr0  1  0.37878000  0.12878100  0.75756100  1.0
  Pr  Pr1  1  0.63026900  0.88026900  0.26053800  1.0
  Ge  Ge2  1  0.03436600  0.28436700  0.06873300  1.0
  Ge  Ge3  1  0.81075200  0.56075200  0.62150400  1.0
  Ge  Ge4  1  0.20583100  0.45583200  0.41166300  1.0
