# generated using pymatgen
data_Pr2Ge5Ir3
_symmetry_space_group_name_H-M   'P 1'
_cell_length_a   6.13142400
_cell_length_b   8.50435377
_cell_length_c   8.50435377
_cell_angle_alpha   74.91253066
_cell_angle_beta   68.86987081
_cell_angle_gamma   68.86987081
_symmetry_Int_Tables_number   1
_chemical_formula_structural   Pr2Ge5Ir3
_chemical_formula_sum   'Pr4 Ge10 Ir6'
_cell_volume   381.46847462
_cell_formula_units_Z   2
loop_
 _symmetry_equiv_pos_site_id
 _symmetry_equiv_pos_as_xyz
  1  'x, y, z'
loop_
 _atom_site_type_symbol
 _atom_site_label
 _atom_site_symmetry_multiplicity
 _atom_site_fract_x
 _atom_site_fract_y
 _atom_site_fract_z
 _atom_site_occupancy
  Pr  Pr0  1  0.63332500  0.59438000  0.13897000  1.0
  Pr  Pr1  1  0.36667500  0.40562000  0.86103000  1.0
  Pr  Pr2  1  0.13332500  0.13897000  0.59438000  1.0
  Pr  Pr3  1  0.86667500  0.86103000  0.40562000  1.0
  Ge  Ge4  1  0.25000000  0.50000000  0.50000000  1.0
  Ge  Ge5  1  0.75000000  0.50000000  0.50000000  1.0
  Ge  Ge6  1  0.47410400  0.77589600  0.77589600  1.0
  Ge  Ge7  1  0.02589600  0.22410400  0.22410400  1.0
  Ge  Ge8  1  0.52589600  0.22410400  0.22410400  1.0
  Ge  Ge9  1  0.97410400  0.77589600  0.77589600  1.0
  Ge  Ge10  1  0.90006400  0.25988200  0.93999000  1.0
  Ge  Ge11  1  0.09993600  0.74011800  0.06001000  1.0
  Ge  Ge12  1  0.40006400  0.93999000  0.25988200  1.0
  Ge  Ge13  1  0.59993600  0.06001000  0.74011800  1.0
  Ir  Ir14  1  0.25000000  1.00000000  0.00000000  1.0
  Ir  Ir15  1  0.75000000  1.00000000  0.00000000  1.0
  Ir  Ir16  1  0.85861700  0.53242700  0.75033900  1.0
  Ir  Ir17  1  0.14138300  0.46757300  0.24966100  1.0
  Ir  Ir18  1  0.35861700  0.75033900  0.53242700  1.0
  Ir  Ir19  1  0.64138300  0.24966100  0.46757300  1.0
