# generated using pymatgen
data_Pr2Si3
_symmetry_space_group_name_H-M   'P 1'
_cell_length_a   3.96839800
_cell_length_b   4.25275000
_cell_length_c   7.70629379
_cell_angle_alpha   106.01726860
_cell_angle_beta   104.92045180
_cell_angle_gamma   89.99999999
_symmetry_Int_Tables_number   1
_chemical_formula_structural   Pr2Si3
_chemical_formula_sum   'Pr2 Si3'
_cell_volume   120.43848811
_cell_formula_units_Z   1
loop_
 _symmetry_equiv_pos_site_id
 _symmetry_equiv_pos_as_xyz
  1  'x, y, z'
loop_
 _atom_site_type_symbol
 _atom_site_label
 _atom_site_symmetry_multiplicity
 _atom_site_fract_x
 _atom_site_fract_y
 _atom_site_fract_z
 _atom_site_occupancy
  Pr  Pr0  1  0.37360100  0.37360100  0.74720200  1.0
  Pr  Pr1  1  0.62664600  0.12664600  0.25329200  1.0
  Si  Si2  1  0.03716600  0.53716600  0.07433200  1.0
  Si  Si3  1  0.79700900  0.79700900  0.59401800  1.0
  Si  Si4  1  0.20157800  0.70157800  0.40315600  1.0
