# generated using pymatgen
data_Pr2Sn5
_symmetry_space_group_name_H-M   'P 1'
_cell_length_a   4.66404000
_cell_length_b   4.70553600
_cell_length_c   17.97751699
_cell_angle_alpha   90.00000000
_cell_angle_beta   97.45333694
_cell_angle_gamma   90.00000000
_symmetry_Int_Tables_number   1
_chemical_formula_structural   Pr2Sn5
_chemical_formula_sum   'Pr4 Sn10'
_cell_volume   391.21550582
_cell_formula_units_Z   2
loop_
 _symmetry_equiv_pos_site_id
 _symmetry_equiv_pos_as_xyz
  1  'x, y, z'
loop_
 _atom_site_type_symbol
 _atom_site_label
 _atom_site_symmetry_multiplicity
 _atom_site_fract_x
 _atom_site_fract_y
 _atom_site_fract_z
 _atom_site_occupancy
  Pr  Pr0  1  0.93225400  0.50000000  0.86450800  1.0
  Pr  Pr1  1  0.06774600  0.50000000  0.13549200  1.0
  Pr  Pr2  1  0.79772600  0.50000000  0.59545200  1.0
  Pr  Pr3  1  0.20227400  0.50000000  0.40454800  1.0
  Sn  Sn4  1  0.63702800  0.50000000  0.27405600  1.0
  Sn  Sn5  1  0.36297200  0.50000000  0.72594400  1.0
  Sn  Sn6  1  0.72125200  0.00000000  0.44250400  1.0
  Sn  Sn7  1  0.27874800  0.00000000  0.55749600  1.0
  Sn  Sn8  1  0.50000000  0.50000000  1.00000000  1.0
  Sn  Sn9  1  0.57083400  0.00000000  0.14166800  1.0
  Sn  Sn10  1  0.42916600  1.00000000  0.85833200  1.0
  Sn  Sn11  1  0.86249900  0.00000000  0.72499800  1.0
  Sn  Sn12  1  0.13750100  1.00000000  0.27500200  1.0
  Sn  Sn13  1  0.00000000  0.00000000  0.00000000  1.0
