# generated using pymatgen
data_Pr3Lu
_symmetry_space_group_name_H-M   'P 1'
_cell_length_a   5.98163500
_cell_length_b   7.34396400
_cell_length_c   7.34396366
_cell_angle_alpha   120.00000151
_cell_angle_beta   90.00000000
_cell_angle_gamma   90.00000000
_symmetry_Int_Tables_number   1
_chemical_formula_structural   Pr3Lu
_chemical_formula_sum   'Pr6 Lu2'
_cell_volume   279.39047250
_cell_formula_units_Z   2
loop_
 _symmetry_equiv_pos_site_id
 _symmetry_equiv_pos_as_xyz
  1  'x, y, z'
loop_
 _atom_site_type_symbol
 _atom_site_label
 _atom_site_symmetry_multiplicity
 _atom_site_fract_x
 _atom_site_fract_y
 _atom_site_fract_z
 _atom_site_occupancy
  Pr  Pr0  1  0.75000000  0.83133000  0.16867100  1.0
  Pr  Pr1  1  0.75000000  0.33734100  0.16867100  1.0
  Pr  Pr2  1  0.75000000  0.83133000  0.66266000  1.0
  Pr  Pr3  1  0.25000000  0.16867000  0.83132900  1.0
  Pr  Pr4  1  0.25000000  0.66265900  0.83132900  1.0
  Pr  Pr5  1  0.25000000  0.16867000  0.33734000  1.0
  Lu  Lu6  1  0.25000000  0.66666667  0.33333333  1.0
  Lu  Lu7  1  0.75000000  0.33333333  0.66666667  1.0
