# generated using pymatgen
data_Pr3Si3Ni
_symmetry_space_group_name_H-M   'P 1'
_cell_length_a   4.01108400
_cell_length_b   4.33791600
_cell_length_c   9.53096147
_cell_angle_alpha   103.15403168
_cell_angle_beta   102.14719451
_cell_angle_gamma   89.99999999
_symmetry_Int_Tables_number   1
_chemical_formula_structural   Pr3Si3Ni
_chemical_formula_sum   'Pr3 Si3 Ni1'
_cell_volume   157.66958591
_cell_formula_units_Z   1
loop_
 _symmetry_equiv_pos_site_id
 _symmetry_equiv_pos_as_xyz
  1  'x, y, z'
loop_
 _atom_site_type_symbol
 _atom_site_label
 _atom_site_symmetry_multiplicity
 _atom_site_fract_x
 _atom_site_fract_y
 _atom_site_fract_z
 _atom_site_occupancy
  Pr  Pr0  1  0.99953000  0.99953000  0.99906000  1.0
  Pr  Pr1  1  0.68492500  0.18492500  0.36985000  1.0
  Pr  Pr2  1  0.31835300  0.81835300  0.63670600  1.0
  Si  Si3  1  0.86679000  0.36679000  0.73358000  1.0
  Si  Si4  1  0.13855300  0.63855300  0.27710600  1.0
  Si  Si5  1  0.55850600  0.55850600  0.11701200  1.0
  Ni  Ni6  1  0.43334300  0.43334300  0.86668600  1.0
