# generated using pymatgen
data_PrEr3
_symmetry_space_group_name_H-M   'P 1'
_cell_length_a   5.74212400
_cell_length_b   7.23231400
_cell_length_c   7.23231430
_cell_angle_alpha   60.00000138
_cell_angle_beta   90.00000000
_cell_angle_gamma   90.00000000
_symmetry_Int_Tables_number   1
_chemical_formula_structural   PrEr3
_chemical_formula_sum   'Pr2 Er6'
_cell_volume   260.11043120
_cell_formula_units_Z   2
loop_
 _symmetry_equiv_pos_site_id
 _symmetry_equiv_pos_as_xyz
  1  'x, y, z'
loop_
 _atom_site_type_symbol
 _atom_site_label
 _atom_site_symmetry_multiplicity
 _atom_site_fract_x
 _atom_site_fract_y
 _atom_site_fract_z
 _atom_site_occupancy
  Pr  Pr0  1  0.25000000  0.33333333  0.33333333  1.0
  Pr  Pr1  1  0.75000000  0.66666667  0.66666667  1.0
  Er  Er2  1  0.75000000  0.67173800  0.16413100  1.0
  Er  Er3  1  0.75000000  0.16413100  0.16413100  1.0
  Er  Er4  1  0.75000000  0.16413100  0.67173800  1.0
  Er  Er5  1  0.25000000  0.32826200  0.83586900  1.0
  Er  Er6  1  0.25000000  0.83586900  0.83586900  1.0
  Er  Er7  1  0.25000000  0.83586900  0.32826200  1.0
