# generated using pymatgen
data_PrSbSe
_symmetry_space_group_name_H-M   'P 1'
_cell_length_a   4.24785300
_cell_length_b   4.26752242
_cell_length_c   18.49294000
_cell_angle_alpha   90.00000000
_cell_angle_beta   90.00000000
_cell_angle_gamma   89.93900569
_symmetry_Int_Tables_number   1
_chemical_formula_structural   PrSbSe
_chemical_formula_sum   'Pr4 Sb4 Se4'
_cell_volume   335.23627426
_cell_formula_units_Z   4
loop_
 _symmetry_equiv_pos_site_id
 _symmetry_equiv_pos_as_xyz
  1  'x, y, z'
loop_
 _atom_site_type_symbol
 _atom_site_label
 _atom_site_symmetry_multiplicity
 _atom_site_fract_x
 _atom_site_fract_y
 _atom_site_fract_z
 _atom_site_occupancy
  Pr  Pr0  1  0.75495900  0.76916900  0.85253400  1.0
  Pr  Pr1  1  0.74504100  0.73083100  0.35253400  1.0
  Pr  Pr2  1  0.24504100  0.23083100  0.14746600  1.0
  Pr  Pr3  1  0.25495900  0.26916900  0.64746600  1.0
  Sb  Sb4  1  0.25208100  0.77195300  0.50165600  1.0
  Sb  Sb5  1  0.24791900  0.72804700  0.00165600  1.0
  Sb  Sb6  1  0.74791900  0.22804700  0.49834400  1.0
  Sb  Sb7  1  0.75208100  0.27195300  0.99834400  1.0
  Se  Se8  1  0.75726600  0.76640700  0.68632700  1.0
  Se  Se9  1  0.74273400  0.73359300  0.18632700  1.0
  Se  Se10  1  0.24273400  0.23359300  0.31367300  1.0
  Se  Se11  1  0.25726600  0.26640700  0.81367300  1.0
