# generated using pymatgen
data_PrScGe
_symmetry_space_group_name_H-M   'P 1'
_cell_length_a   4.34528400
_cell_length_b   4.34528400
_cell_length_c   8.63021439
_cell_angle_alpha   104.58099308
_cell_angle_beta   104.58099310
_cell_angle_gamma   89.99999998
_symmetry_Int_Tables_number   1
_chemical_formula_structural   PrScGe
_chemical_formula_sum   'Pr2 Sc2 Ge2'
_cell_volume   152.27412460
_cell_formula_units_Z   2
loop_
 _symmetry_equiv_pos_site_id
 _symmetry_equiv_pos_as_xyz
  1  'x, y, z'
loop_
 _atom_site_type_symbol
 _atom_site_label
 _atom_site_symmetry_multiplicity
 _atom_site_fract_x
 _atom_site_fract_y
 _atom_site_fract_z
 _atom_site_occupancy
  Pr  Pr0  1  0.67644600  0.67644600  0.35289200  1.0
  Pr  Pr1  1  0.32355400  0.32355400  0.64710800  1.0
  Sc  Sc2  1  0.50000000  0.00000000  0.00000000  1.0
  Sc  Sc3  1  0.00000000  0.50000000  0.00000000  1.0
  Ge  Ge4  1  0.12168600  0.12168600  0.24337200  1.0
  Ge  Ge5  1  0.87831400  0.87831400  0.75662800  1.0
