# generated using pymatgen
data_PrZnGe
_symmetry_space_group_name_H-M   'P 1'
_cell_length_a   4.30726600
_cell_length_b   4.30726533
_cell_length_c   16.88764400
_cell_angle_alpha   90.00000000
_cell_angle_beta   90.00000000
_cell_angle_gamma   120.00000517
_symmetry_Int_Tables_number   1
_chemical_formula_structural   PrZnGe
_chemical_formula_sum   'Pr4 Zn4 Ge4'
_cell_volume   271.33323508
_cell_formula_units_Z   4
loop_
 _symmetry_equiv_pos_site_id
 _symmetry_equiv_pos_as_xyz
  1  'x, y, z'
loop_
 _atom_site_type_symbol
 _atom_site_label
 _atom_site_symmetry_multiplicity
 _atom_site_fract_x
 _atom_site_fract_y
 _atom_site_fract_z
 _atom_site_occupancy
  Pr  Pr0  1  0.00000000  0.00000000  0.75000000  1.0
  Pr  Pr1  1  0.00000000  0.00000000  0.25000000  1.0
  Pr  Pr2  1  0.00000000  0.00000000  0.00000000  1.0
  Pr  Pr3  1  0.00000000  0.00000000  0.50000000  1.0
  Zn  Zn4  1  0.66666667  0.33333333  0.86228600  1.0
  Zn  Zn5  1  0.33333333  0.66666667  0.13771400  1.0
  Zn  Zn6  1  0.33333333  0.66666667  0.36228600  1.0
  Zn  Zn7  1  0.66666667  0.33333333  0.63771400  1.0
  Ge  Ge8  1  0.66666667  0.33333333  0.38191000  1.0
  Ge  Ge9  1  0.33333333  0.66666667  0.61809000  1.0
  Ge  Ge10  1  0.33333333  0.66666667  0.88191000  1.0
  Ge  Ge11  1  0.66666667  0.33333333  0.11809000  1.0
