# generated using pymatgen
data_PuAl3
_symmetry_space_group_name_H-M   'P 1'
_cell_length_a   4.73212300
_cell_length_b   6.17032200
_cell_length_c   6.17032235
_cell_angle_alpha   60.00000185
_cell_angle_beta   90.00000000
_cell_angle_gamma   90.00000000
_symmetry_Int_Tables_number   1
_chemical_formula_structural   PuAl3
_chemical_formula_sum   'Pu2 Al6'
_cell_volume   156.02792975
_cell_formula_units_Z   2
loop_
 _symmetry_equiv_pos_site_id
 _symmetry_equiv_pos_as_xyz
  1  'x, y, z'
loop_
 _atom_site_type_symbol
 _atom_site_label
 _atom_site_symmetry_multiplicity
 _atom_site_fract_x
 _atom_site_fract_y
 _atom_site_fract_z
 _atom_site_occupancy
  Pu  Pu0  1  0.25000000  0.33333333  0.33333333  1.0
  Pu  Pu1  1  0.75000000  0.66666667  0.66666667  1.0
  Al  Al2  1  0.75000000  0.68750200  0.15624900  1.0
  Al  Al3  1  0.75000000  0.15624900  0.15624900  1.0
  Al  Al4  1  0.75000000  0.15624900  0.68750200  1.0
  Al  Al5  1  0.25000000  0.31249800  0.84375100  1.0
  Al  Al6  1  0.25000000  0.84375100  0.84375100  1.0
  Al  Al7  1  0.25000000  0.84375100  0.31249800  1.0
