# generated using pymatgen
data_PuPt3
_symmetry_space_group_name_H-M   'P 1'
_cell_length_a   4.83629000
_cell_length_b   5.87258000
_cell_length_c   5.87258046
_cell_angle_alpha   60.00000260
_cell_angle_beta   90.00000000
_cell_angle_gamma   90.00000000
_symmetry_Int_Tables_number   1
_chemical_formula_structural   PuPt3
_chemical_formula_sum   'Pu2 Pt6'
_cell_volume   144.44446181
_cell_formula_units_Z   2
loop_
 _symmetry_equiv_pos_site_id
 _symmetry_equiv_pos_as_xyz
  1  'x, y, z'
loop_
 _atom_site_type_symbol
 _atom_site_label
 _atom_site_symmetry_multiplicity
 _atom_site_fract_x
 _atom_site_fract_y
 _atom_site_fract_z
 _atom_site_occupancy
  Pu  Pu0  1  0.25000000  0.33333333  0.33333333  1.0
  Pu  Pu1  1  0.75000000  0.66666667  0.66666667  1.0
  Pt  Pt2  1  0.75000000  0.67717400  0.16141300  1.0
  Pt  Pt3  1  0.75000000  0.16141300  0.16141300  1.0
  Pt  Pt4  1  0.75000000  0.16141300  0.67717400  1.0
  Pt  Pt5  1  0.25000000  0.32282600  0.83858700  1.0
  Pt  Pt6  1  0.25000000  0.83858700  0.83858700  1.0
  Pt  Pt7  1  0.25000000  0.83858700  0.32282600  1.0
