# generated using pymatgen
data_PuTe3
_symmetry_space_group_name_H-M   'P 1'
_cell_length_a   4.32799000
_cell_length_b   4.37474500
_cell_length_c   12.61822971
_cell_angle_alpha   90.00000000
_cell_angle_beta   99.87489898
_cell_angle_gamma   90.00000000
_symmetry_Int_Tables_number   1
_chemical_formula_structural   PuTe3
_chemical_formula_sum   'Pu2 Te6'
_cell_volume   235.37211787
_cell_formula_units_Z   2
loop_
 _symmetry_equiv_pos_site_id
 _symmetry_equiv_pos_as_xyz
  1  'x, y, z'
loop_
 _atom_site_type_symbol
 _atom_site_label
 _atom_site_symmetry_multiplicity
 _atom_site_fract_x
 _atom_site_fract_y
 _atom_site_fract_z
 _atom_site_occupancy
  Pu  Pu0  1  0.16841300  0.75000000  0.33682600  1.0
  Pu  Pu1  1  0.83158700  0.25000000  0.66317400  1.0
  Te  Te2  1  0.92761700  0.75000000  0.85523400  1.0
  Te  Te3  1  0.07238300  0.25000000  0.14476600  1.0
  Te  Te4  1  0.57280800  0.75000000  0.14561600  1.0
  Te  Te5  1  0.42719200  0.25000000  0.85438400  1.0
  Te  Te6  1  0.29778700  0.75000000  0.59557400  1.0
  Te  Te7  1  0.70221300  0.25000000  0.40442600  1.0
