# generated using pymatgen
data_PuUC2
_symmetry_space_group_name_H-M   'P 1'
_cell_length_a   3.58340359
_cell_length_b   3.58340359
_cell_length_c   6.01378614
_cell_angle_alpha   72.66655784
_cell_angle_beta   72.66655784
_cell_angle_gamma   60.00000755
_symmetry_Int_Tables_number   1
_chemical_formula_structural   PuUC2
_chemical_formula_sum   'Pu1 U1 C2'
_cell_volume   62.79395796
_cell_formula_units_Z   1
loop_
 _symmetry_equiv_pos_site_id
 _symmetry_equiv_pos_as_xyz
  1  'x, y, z'
loop_
 _atom_site_type_symbol
 _atom_site_label
 _atom_site_symmetry_multiplicity
 _atom_site_fract_x
 _atom_site_fract_y
 _atom_site_fract_z
 _atom_site_occupancy
  Pu  Pu0  1  0.00000000  0.00000000  0.00000000  1.0
  U  U1  1  0.50000000  0.50000000  0.50000000  1.0
  C  C2  1  0.23865000  0.23865000  0.28405000  1.0
  C  C3  1  0.76135000  0.76135000  0.71595000  1.0
