# generated using pymatgen
data_Rb(MoS)3
_symmetry_space_group_name_H-M   'P 1'
_cell_length_a   4.45907800
_cell_length_b   9.23467200
_cell_length_c   9.23467239
_cell_angle_alpha   119.99999860
_cell_angle_beta   90.00000000
_cell_angle_gamma   90.00000000
_symmetry_Int_Tables_number   1
_chemical_formula_structural   Rb(MoS)3
_chemical_formula_sum   'Rb2 Mo6 S6'
_cell_volume   329.32043063
_cell_formula_units_Z   2
loop_
 _symmetry_equiv_pos_site_id
 _symmetry_equiv_pos_as_xyz
  1  'x, y, z'
loop_
 _atom_site_type_symbol
 _atom_site_label
 _atom_site_symmetry_multiplicity
 _atom_site_fract_x
 _atom_site_fract_y
 _atom_site_fract_z
 _atom_site_occupancy
  Rb  Rb0  1  0.25000000  0.66666667  0.33333333  1.0
  Rb  Rb1  1  0.75000000  0.33333333  0.66666667  1.0
  Mo  Mo2  1  0.75000000  0.02851700  0.84905000  1.0
  Mo  Mo3  1  0.75000000  0.15095000  0.17946700  1.0
  Mo  Mo4  1  0.25000000  0.84905000  0.82053300  1.0
  Mo  Mo5  1  0.25000000  0.97148300  0.15095000  1.0
  Mo  Mo6  1  0.75000000  0.82053300  0.97148300  1.0
  Mo  Mo7  1  0.25000000  0.17946700  0.02851700  1.0
  S  S8  1  0.25000000  0.05504900  0.71874200  1.0
  S  S9  1  0.75000000  0.94495100  0.28125800  1.0
  S  S10  1  0.75000000  0.71874200  0.66369300  1.0
  S  S11  1  0.75000000  0.33630700  0.05504900  1.0
  S  S12  1  0.25000000  0.66369300  0.94495100  1.0
  S  S13  1  0.25000000  0.28125800  0.33630700  1.0
