# generated using pymatgen
data_Rb2As3
_symmetry_space_group_name_H-M   'P 1'
_cell_length_a   6.94907650
_cell_length_b   6.94907650
_cell_length_c   9.06592345
_cell_angle_alpha   110.18083342
_cell_angle_beta   110.18083337
_cell_angle_gamma   95.73061473
_symmetry_Int_Tables_number   1
_chemical_formula_structural   Rb2As3
_chemical_formula_sum   'Rb4 As6'
_cell_volume   373.59555986
_cell_formula_units_Z   2
loop_
 _symmetry_equiv_pos_site_id
 _symmetry_equiv_pos_as_xyz
  1  'x, y, z'
loop_
 _atom_site_type_symbol
 _atom_site_label
 _atom_site_symmetry_multiplicity
 _atom_site_fract_x
 _atom_site_fract_y
 _atom_site_fract_z
 _atom_site_occupancy
  Rb  Rb0  1  0.75000000  0.25000000  0.50000000  1.0
  Rb  Rb1  1  0.25000000  0.75000000  0.50000000  1.0
  Rb  Rb2  1  0.73835900  0.26164100  0.00000000  1.0
  Rb  Rb3  1  0.26164100  0.73835900  0.00000000  1.0
  As  As4  1  0.14720100  0.14720100  0.84413200  1.0
  As  As5  1  0.30306900  0.30306900  0.15586800  1.0
  As  As6  1  0.85279900  0.85279900  0.15586800  1.0
  As  As7  1  0.69693100  0.69693100  0.84413200  1.0
  As  As8  1  0.84342800  0.84342800  0.68685600  1.0
  As  As9  1  0.15657200  0.15657200  0.31314400  1.0
