# generated using pymatgen
data_Rb2BaCl4
_symmetry_space_group_name_H-M   'P 1'
_cell_length_a   8.39244957
_cell_length_b   8.39244957
_cell_length_c   8.39244957
_cell_angle_alpha   71.32631939
_cell_angle_beta   70.12854351
_cell_angle_gamma   109.87145649
_symmetry_Int_Tables_number   1
_chemical_formula_structural   Rb2BaCl4
_chemical_formula_sum   'Rb4 Ba2 Cl8'
_cell_volume   454.96849060
_cell_formula_units_Z   2
loop_
 _symmetry_equiv_pos_site_id
 _symmetry_equiv_pos_as_xyz
  1  'x, y, z'
loop_
 _atom_site_type_symbol
 _atom_site_label
 _atom_site_symmetry_multiplicity
 _atom_site_fract_x
 _atom_site_fract_y
 _atom_site_fract_z
 _atom_site_occupancy
  Rb  Rb0  1  0.63558300  0.12500000  0.73941700  1.0
  Rb  Rb1  1  0.36441700  0.62500000  0.51058300  1.0
  Rb  Rb2  1  0.86441700  0.73941700  0.62500000  1.0
  Rb  Rb3  1  0.13558300  0.51058300  0.12500000  1.0
  Ba  Ba4  1  0.50000000  0.25000000  0.25000000  1.0
  Ba  Ba5  1  0.00000000  0.00000000  0.00000000  1.0
  Cl  Cl6  1  0.25056100  0.89185700  0.72270300  1.0
  Cl  Cl7  1  0.74943900  0.02673700  0.35870400  1.0
  Cl  Cl8  1  0.11455900  0.22326300  0.52729800  1.0
  Cl  Cl9  1  0.88544100  0.35814300  0.89129500  1.0
  Cl  Cl10  1  0.75056100  0.52729700  0.35814300  1.0
  Cl  Cl11  1  0.24943900  0.89129600  0.22326300  1.0
  Cl  Cl12  1  0.61455900  0.72270200  0.02673700  1.0
  Cl  Cl13  1  0.38544100  0.35870500  0.89185700  1.0
