# generated using pymatgen
data_Rb2GeF6
_symmetry_space_group_name_H-M   'P 1'
_cell_length_a   4.94482200
_cell_length_b   5.96427800
_cell_length_c   5.96427777
_cell_angle_alpha   120.00000127
_cell_angle_beta   90.00000000
_cell_angle_gamma   90.00000000
_symmetry_Int_Tables_number   1
_chemical_formula_structural   Rb2GeF6
_chemical_formula_sum   'Rb2 Ge1 F6'
_cell_volume   152.33406393
_cell_formula_units_Z   1
loop_
 _symmetry_equiv_pos_site_id
 _symmetry_equiv_pos_as_xyz
  1  'x, y, z'
loop_
 _atom_site_type_symbol
 _atom_site_label
 _atom_site_symmetry_multiplicity
 _atom_site_fract_x
 _atom_site_fract_y
 _atom_site_fract_z
 _atom_site_occupancy
  Rb  Rb0  1  0.29929800  0.66666667  0.33333333  1.0
  Rb  Rb1  1  0.70070200  0.33333333  0.66666667  1.0
  Ge  Ge2  1  0.00000000  0.00000000  0.00000000  1.0
  F  F3  1  0.20951400  0.14725000  0.29450000  1.0
  F  F4  1  0.20951400  0.14725000  0.85274900  1.0
  F  F5  1  0.20951400  0.70549900  0.85274900  1.0
  F  F6  1  0.79048600  0.85275000  0.70550000  1.0
  F  F7  1  0.79048600  0.85275000  0.14725100  1.0
  F  F8  1  0.79048600  0.29450100  0.14725100  1.0
