# generated using pymatgen
data_Rb2NaPdF6
_symmetry_space_group_name_H-M   'P 1'
_cell_length_a   6.09882600
_cell_length_b   6.23310095
_cell_length_c   6.09882600
_cell_angle_alpha   119.28991072
_cell_angle_beta   89.99999999
_cell_angle_gamma   119.28991073
_symmetry_Int_Tables_number   1
_chemical_formula_structural   Rb2NaPdF6
_chemical_formula_sum   'Rb2 Na1 Pd1 F6'
_cell_volume   167.39587817
_cell_formula_units_Z   1
loop_
 _symmetry_equiv_pos_site_id
 _symmetry_equiv_pos_as_xyz
  1  'x, y, z'
loop_
 _atom_site_type_symbol
 _atom_site_label
 _atom_site_symmetry_multiplicity
 _atom_site_fract_x
 _atom_site_fract_y
 _atom_site_fract_z
 _atom_site_occupancy
  Rb  Rb0  1  0.25000000  0.50000000  0.75000000  1.0
  Rb  Rb1  1  0.75000000  0.50000000  0.25000000  1.0
  Na  Na2  1  0.50000000  0.00000000  0.50000000  1.0
  Pd  Pd3  1  0.00000000  0.00000000  0.00000000  1.0
  F  F4  1  0.76847400  0.00000000  0.23152600  1.0
  F  F5  1  0.23152600  0.00000000  0.76847400  1.0
  F  F6  1  0.76847400  0.00000000  0.76847400  1.0
  F  F7  1  0.23152600  0.00000000  0.23152600  1.0
  F  F8  1  0.75385100  0.50770200  0.75385100  1.0
  F  F9  1  0.24614900  0.49229800  0.24614900  1.0
