# generated using pymatgen
data_Rb2RhF6
_symmetry_space_group_name_H-M   'P 1'
_cell_length_a   4.98691100
_cell_length_b   6.01110800
_cell_length_c   6.01110693
_cell_angle_alpha   120.00000587
_cell_angle_beta   90.00000000
_cell_angle_gamma   90.00000000
_symmetry_Int_Tables_number   1
_chemical_formula_structural   Rb2RhF6
_chemical_formula_sum   'Rb2 Rh1 F6'
_cell_volume   156.05267150
_cell_formula_units_Z   1
loop_
 _symmetry_equiv_pos_site_id
 _symmetry_equiv_pos_as_xyz
  1  'x, y, z'
loop_
 _atom_site_type_symbol
 _atom_site_label
 _atom_site_symmetry_multiplicity
 _atom_site_fract_x
 _atom_site_fract_y
 _atom_site_fract_z
 _atom_site_occupancy
  Rb  Rb0  1  0.29807900  0.66666667  0.33333333  1.0
  Rb  Rb1  1  0.70192100  0.33333333  0.66666667  1.0
  Rh  Rh2  1  0.00000000  0.00000000  0.00000000  1.0
  F  F3  1  0.21652900  0.15674400  0.31348800  1.0
  F  F4  1  0.21652900  0.15674400  0.84325500  1.0
  F  F5  1  0.21652900  0.68651100  0.84325500  1.0
  F  F6  1  0.78347100  0.84325600  0.68651200  1.0
  F  F7  1  0.78347100  0.84325600  0.15674500  1.0
  F  F8  1  0.78347100  0.31348900  0.15674500  1.0
