# generated using pymatgen
data_Rb2TaCuSe4
_symmetry_space_group_name_H-M   'P 1'
_cell_length_a   5.80242400
_cell_length_b   7.71366874
_cell_length_c   12.93446399
_cell_angle_alpha   85.16063207
_cell_angle_beta   77.03822764
_cell_angle_gamma   67.90687288
_symmetry_Int_Tables_number   1
_chemical_formula_structural   Rb2TaCuSe4
_chemical_formula_sum   'Rb4 Ta2 Cu2 Se8'
_cell_volume   522.74465716
_cell_formula_units_Z   2
loop_
 _symmetry_equiv_pos_site_id
 _symmetry_equiv_pos_as_xyz
  1  'x, y, z'
loop_
 _atom_site_type_symbol
 _atom_site_label
 _atom_site_symmetry_multiplicity
 _atom_site_fract_x
 _atom_site_fract_y
 _atom_site_fract_z
 _atom_site_occupancy
  Rb  Rb0  1  0.32112900  0.00000000  0.35774200  1.0
  Rb  Rb1  1  0.67887100  1.00000000  0.64225800  1.0
  Rb  Rb2  1  0.42887100  0.50000000  0.14225800  1.0
  Rb  Rb3  1  0.07112900  0.50000000  0.85774200  1.0
  Ta  Ta4  1  0.50000000  0.00000000  0.00000000  1.0
  Ta  Ta5  1  0.25000000  0.50000000  0.50000000  1.0
  Cu  Cu6  1  0.00000000  0.00000000  0.00000000  1.0
  Cu  Cu7  1  0.75000000  0.50000000  0.50000000  1.0
  Se  Se8  1  0.78652700  0.80382100  0.11035000  1.0
  Se  Se9  1  0.70069800  0.19617900  0.88965000  1.0
  Se  Se10  1  0.40965200  0.80382100  0.88965000  1.0
  Se  Se11  1  0.10312300  0.19617900  0.11035000  1.0
  Se  Se12  1  0.64687700  0.30382100  0.38965000  1.0
  Se  Se13  1  0.34034800  0.69617900  0.61035000  1.0
  Se  Se14  1  0.04930200  0.30382100  0.61035000  1.0
  Se  Se15  1  0.96347300  0.69617900  0.38965000  1.0
