# generated using pymatgen
data_Rb2WO4
_symmetry_space_group_name_H-M   'P 1'
_cell_length_a   6.47441600
_cell_length_b   7.31221353
_cell_length_c   8.06451783
_cell_angle_alpha   113.20070967
_cell_angle_beta   90.00000000
_cell_angle_gamma   116.27707489
_symmetry_Int_Tables_number   1
_chemical_formula_structural   Rb2WO4
_chemical_formula_sum   'Rb4 W2 O8'
_cell_volume   307.52856595
_cell_formula_units_Z   2
loop_
 _symmetry_equiv_pos_site_id
 _symmetry_equiv_pos_as_xyz
  1  'x, y, z'
loop_
 _atom_site_type_symbol
 _atom_site_label
 _atom_site_symmetry_multiplicity
 _atom_site_fract_x
 _atom_site_fract_y
 _atom_site_fract_z
 _atom_site_occupancy
  Rb  Rb0  1  0.84383800  0.68767600  0.25280300  1.0
  Rb  Rb1  1  0.15616200  0.31232400  0.74719700  1.0
  Rb  Rb2  1  0.48842300  0.97684600  0.76305000  1.0
  Rb  Rb3  1  0.51157700  0.02315400  0.23695000  1.0
  W  W4  1  0.17593800  0.35187600  0.22569500  1.0
  W  W5  1  0.82406200  0.64812400  0.77430500  1.0
  O  O6  1  0.37093000  0.28619700  0.08271200  1.0
  O  O7  1  0.08473300  0.71380300  0.91728800  1.0
  O  O8  1  0.62907000  0.71380300  0.91728800  1.0
  O  O9  1  0.91526700  0.28619700  0.08271200  1.0
  O  O10  1  0.67314200  0.34628400  0.62569600  1.0
  O  O11  1  0.32685800  0.65371600  0.37430400  1.0
  O  O12  1  0.09391800  0.18783600  0.35645200  1.0
  O  O13  1  0.90608200  0.81216400  0.64354800  1.0
