# generated using pymatgen
data_Rb2ZrO3
_symmetry_space_group_name_H-M   'P 1'
_cell_length_a   5.95713242
_cell_length_b   6.78364600
_cell_length_c   7.35007398
_cell_angle_alpha   62.51813274
_cell_angle_beta   85.91426267
_cell_angle_gamma   81.11818746
_symmetry_Int_Tables_number   1
_chemical_formula_structural   Rb2ZrO3
_chemical_formula_sum   'Rb4 Zr2 O6'
_cell_volume   260.34752551
_cell_formula_units_Z   2
loop_
 _symmetry_equiv_pos_site_id
 _symmetry_equiv_pos_as_xyz
  1  'x, y, z'
loop_
 _atom_site_type_symbol
 _atom_site_label
 _atom_site_symmetry_multiplicity
 _atom_site_fract_x
 _atom_site_fract_y
 _atom_site_fract_z
 _atom_site_occupancy
  Rb  Rb0  1  0.51721600  0.38461300  0.17660900  1.0
  Rb  Rb1  1  0.52191500  0.76274600  0.48536400  1.0
  Rb  Rb2  1  0.01721600  0.56122200  0.82339100  1.0
  Rb  Rb3  1  0.02191500  0.24811000  0.51463600  1.0
  Zr  Zr4  1  0.53722400  0.01195200  0.89967200  1.0
  Zr  Zr5  1  0.03722400  0.91162400  0.10032800  1.0
  O  O6  1  0.77259700  0.74091500  0.06744100  1.0
  O  O7  1  0.27259700  0.80835600  0.93255900  1.0
  O  O8  1  0.56828700  0.12876500  0.59980300  1.0
  O  O9  1  0.78056200  0.18120700  0.95311600  1.0
  O  O10  1  0.06828700  0.72856800  0.40019700  1.0
  O  O11  1  0.28056200  0.13432300  0.04688400  1.0
