# generated using pymatgen
data_Rb3Na(MoO4)2
_symmetry_space_group_name_H-M   'P 1'
_cell_length_a   6.29068101
_cell_length_b   6.29070322
_cell_length_c   8.00757601
_cell_angle_alpha   89.99628799
_cell_angle_beta   89.99608125
_cell_angle_gamma   60.00039541
_symmetry_Int_Tables_number   1
_chemical_formula_structural   Rb3Na(MoO4)2
_chemical_formula_sum   'Rb3 Na1 Mo2 O8'
_cell_volume   274.42918158
_cell_formula_units_Z   1
loop_
 _symmetry_equiv_pos_site_id
 _symmetry_equiv_pos_as_xyz
  1  'x, y, z'
loop_
 _atom_site_type_symbol
 _atom_site_label
 _atom_site_symmetry_multiplicity
 _atom_site_fract_x
 _atom_site_fract_y
 _atom_site_fract_z
 _atom_site_occupancy
  Rb  Rb0  1  0.66666667  0.66666667  0.66814200  1.0
  Rb  Rb1  1  0.33333333  0.33328567  0.33185800  1.0
  Rb  Rb2  1  0.00000000  0.00000000  0.00000000  1.0
  Na  Na3  1  0.00000000  0.00000000  0.50000000  1.0
  Mo  Mo4  1  0.33333333  0.33333333  0.77458900  1.0
  Mo  Mo5  1  0.66666667  0.66666667  0.22541100  1.0
  O  O6  1  0.17844900  0.64317000  0.69413400  1.0
  O  O7  1  0.64317000  0.17835000  0.69413400  1.0
  O  O8  1  0.17834700  0.17844400  0.69411700  1.0
  O  O9  1  0.82155100  0.35683000  0.30586600  1.0
  O  O10  1  0.35683000  0.82165000  0.30586600  1.0
  O  O11  1  0.82165300  0.82155600  0.30588300  1.0
  O  O12  1  0.33333333  0.33327467  0.99726200  1.0
  O  O13  1  0.66666667  0.66666667  0.00273800  1.0
