# generated using pymatgen
data_Rb7Au5O2
_symmetry_space_group_name_H-M   'P 1'
_cell_length_a   5.80988600
_cell_length_b   9.47938000
_cell_length_c   10.15256695
_cell_angle_alpha   117.82978775
_cell_angle_beta   106.62634128
_cell_angle_gamma   90.00000001
_symmetry_Int_Tables_number   1
_chemical_formula_structural   Rb7Au5O2
_chemical_formula_sum   'Rb7 Au5 O2'
_cell_volume   467.87483799
_cell_formula_units_Z   1
loop_
 _symmetry_equiv_pos_site_id
 _symmetry_equiv_pos_as_xyz
  1  'x, y, z'
loop_
 _atom_site_type_symbol
 _atom_site_label
 _atom_site_symmetry_multiplicity
 _atom_site_fract_x
 _atom_site_fract_y
 _atom_site_fract_z
 _atom_site_occupancy
  Rb  Rb0  1  0.16609900  0.38807900  0.33219800  1.0
  Rb  Rb1  1  0.50000000  0.21114300  1.00000000  1.0
  Rb  Rb2  1  0.16609900  0.94411900  0.33219800  1.0
  Rb  Rb3  1  0.83390100  0.61192100  0.66780200  1.0
  Rb  Rb4  1  0.83390100  0.05588100  0.66780200  1.0
  Rb  Rb5  1  0.50000000  0.78885700  1.00000000  1.0
  Rb  Rb6  1  1.00000000  0.50000000  1.00000000  1.0
  Au  Au7  1  0.34823800  0.34823800  0.69647600  1.0
  Au  Au8  1  0.69291000  0.19291000  0.38582000  1.0
  Au  Au9  1  0.00000000  0.00000000  0.00000000  1.0
  Au  Au10  1  0.65176200  0.65176200  0.30352400  1.0
  Au  Au11  1  0.30709000  0.80709000  0.61418000  1.0
  O  O12  1  1.00000000  0.21536800  1.00000000  1.0
  O  O13  1  0.00000000  0.78463200  0.00000000  1.0
