# generated using pymatgen
data_RbAgO2
_symmetry_space_group_name_H-M   'P 1'
_cell_length_a   4.78559200
_cell_length_b   6.06392000
_cell_length_c   6.69936031
_cell_angle_alpha   90.00000000
_cell_angle_beta   110.92636446
_cell_angle_gamma   90.00000000
_symmetry_Int_Tables_number   1
_chemical_formula_structural   RbAgO2
_chemical_formula_sum   'Rb2 Ag2 O4'
_cell_volume   181.58837746
_cell_formula_units_Z   2
loop_
 _symmetry_equiv_pos_site_id
 _symmetry_equiv_pos_as_xyz
  1  'x, y, z'
loop_
 _atom_site_type_symbol
 _atom_site_label
 _atom_site_symmetry_multiplicity
 _atom_site_fract_x
 _atom_site_fract_y
 _atom_site_fract_z
 _atom_site_occupancy
  Rb  Rb0  1  0.70047900  0.25000000  0.40095800  1.0
  Rb  Rb1  1  0.29952100  0.75000000  0.59904200  1.0
  Ag  Ag2  1  0.99705800  0.25000000  0.99411600  1.0
  Ag  Ag3  1  0.00294200  0.75000000  0.00588400  1.0
  O  O4  1  0.89076200  0.99422200  0.78152400  1.0
  O  O5  1  0.10923800  0.00577800  0.21847600  1.0
  O  O6  1  0.10923800  0.49422200  0.21847600  1.0
  O  O7  1  0.89076200  0.50577800  0.78152400  1.0
