# generated using pymatgen
data_RbAlH4
_symmetry_space_group_name_H-M   'P 1'
_cell_length_a   3.81302200
_cell_length_b   6.51041500
_cell_length_c   7.73801715
_cell_angle_alpha   90.00000000
_cell_angle_beta   104.26354218
_cell_angle_gamma   90.00000000
_symmetry_Int_Tables_number   1
_chemical_formula_structural   RbAlH4
_chemical_formula_sum   'Rb2 Al2 H8'
_cell_volume   186.16963424
_cell_formula_units_Z   2
loop_
 _symmetry_equiv_pos_site_id
 _symmetry_equiv_pos_as_xyz
  1  'x, y, z'
loop_
 _atom_site_type_symbol
 _atom_site_label
 _atom_site_symmetry_multiplicity
 _atom_site_fract_x
 _atom_site_fract_y
 _atom_site_fract_z
 _atom_site_occupancy
  Rb  Rb0  1  0.62044300  0.16640800  0.24088600  1.0
  Rb  Rb1  1  0.37955700  0.66640800  0.75911400  1.0
  Al  Al2  1  0.88421500  0.14443300  0.76843000  1.0
  Al  Al3  1  0.11578500  0.64443300  0.23157000  1.0
  H  H4  1  0.80844300  0.96497100  0.61688600  1.0
  H  H5  1  0.19155700  0.46497100  0.38311400  1.0
  H  H6  1  0.39061400  0.15301800  0.78122800  1.0
  H  H7  1  0.60938600  0.65301800  0.21877200  1.0
  H  H8  1  0.01481700  0.54625100  0.02963400  1.0
  H  H9  1  0.98518300  0.04625100  0.97036600  1.0
  H  H10  1  0.84769100  0.37932000  0.69538200  1.0
  H  H11  1  0.15230900  0.87932000  0.30461800  1.0
