# generated using pymatgen
data_RbClO3
_symmetry_space_group_name_H-M   'P 1'
_cell_length_a   4.59708647
_cell_length_b   4.59708647
_cell_length_c   4.59708645
_cell_angle_alpha   83.96766270
_cell_angle_beta   83.96766270
_cell_angle_gamma   83.96766039
_symmetry_Int_Tables_number   1
_chemical_formula_structural   RbClO3
_chemical_formula_sum   'Rb1 Cl1 O3'
_cell_volume   95.64282458
_cell_formula_units_Z   1
loop_
 _symmetry_equiv_pos_site_id
 _symmetry_equiv_pos_as_xyz
  1  'x, y, z'
loop_
 _atom_site_type_symbol
 _atom_site_label
 _atom_site_symmetry_multiplicity
 _atom_site_fract_x
 _atom_site_fract_y
 _atom_site_fract_z
 _atom_site_occupancy
  Rb  Rb0  1  0.02520300  0.02520300  0.02520300  1.0
  Cl  Cl1  1  0.51129100  0.51129100  0.51129100  1.0
  O  O2  1  0.57774800  0.18401000  0.57774800  1.0
  O  O3  1  0.57774800  0.57774800  0.18401000  1.0
  O  O4  1  0.18401000  0.57774800  0.57774800  1.0
