# generated using pymatgen
data_RbCr4O8
_symmetry_space_group_name_H-M   'P 1'
_cell_length_a   3.02097352
_cell_length_b   7.20601532
_cell_length_c   7.25085886
_cell_angle_alpha   87.80769492
_cell_angle_beta   78.03435918
_cell_angle_gamma   78.39495514
_symmetry_Int_Tables_number   1
_chemical_formula_structural   RbCr4O8
_chemical_formula_sum   'Rb1 Cr4 O8'
_cell_volume   151.25800031
_cell_formula_units_Z   1
loop_
 _symmetry_equiv_pos_site_id
 _symmetry_equiv_pos_as_xyz
  1  'x, y, z'
loop_
 _atom_site_type_symbol
 _atom_site_label
 _atom_site_symmetry_multiplicity
 _atom_site_fract_x
 _atom_site_fract_y
 _atom_site_fract_z
 _atom_site_occupancy
  Rb  Rb0  1  0.49979300  0.00142500  0.99887500  1.0
  Cr  Cr1  1  0.66939500  0.18371400  0.50921000  1.0
  Cr  Cr2  1  0.82965700  0.51070800  0.81600600  1.0
  Cr  Cr3  1  0.34826100  0.81438100  0.49014800  1.0
  Cr  Cr4  1  0.15957600  0.49175500  0.18224400  1.0
  O  O5  1  0.83695100  0.69984400  0.62651400  1.0
  O  O6  1  0.15598900  0.29561800  0.37694800  1.0
  O  O7  1  0.53614800  0.62502800  0.30106600  1.0
  O  O8  1  0.46056200  0.37293500  0.70382600  1.0
  O  O9  1  0.78974100  0.36359600  0.04686700  1.0
  O  O10  1  0.84602900  0.94973600  0.36200100  1.0
  O  O11  1  0.20160700  0.64252400  0.94818100  1.0
  O  O12  1  0.16628900  0.04873600  0.63811700  1.0
