# generated using pymatgen
data_RbErS2
_symmetry_space_group_name_H-M   'P 1'
_cell_length_a   4.04625449
_cell_length_b   4.04625449
_cell_length_c   8.02359266
_cell_angle_alpha   75.39538039
_cell_angle_beta   75.39538039
_cell_angle_gamma   59.99999203
_symmetry_Int_Tables_number   1
_chemical_formula_structural   RbErS2
_chemical_formula_sum   'Rb1 Er1 S2'
_cell_volume   108.83553815
_cell_formula_units_Z   1
loop_
 _symmetry_equiv_pos_site_id
 _symmetry_equiv_pos_as_xyz
  1  'x, y, z'
loop_
 _atom_site_type_symbol
 _atom_site_label
 _atom_site_symmetry_multiplicity
 _atom_site_fract_x
 _atom_site_fract_y
 _atom_site_fract_z
 _atom_site_occupancy
  Rb  Rb0  1  0.00000000  0.00000000  0.00000000  1.0
  Er  Er1  1  0.50000000  0.50000000  0.50000000  1.0
  S  S2  1  0.76988700  0.76988700  0.69033900  1.0
  S  S3  1  0.23011300  0.23011300  0.30966100  1.0
