# generated using pymatgen
data_RbNaCd3O4
_symmetry_space_group_name_H-M   'P 1'
_cell_length_a   3.74801600
_cell_length_b   6.82606522
_cell_length_c   6.85036004
_cell_angle_alpha   85.29778584
_cell_angle_beta   74.12357766
_cell_angle_gamma   74.06557105
_symmetry_Int_Tables_number   1
_chemical_formula_structural   RbNaCd3O4
_chemical_formula_sum   'Rb1 Na1 Cd3 O4'
_cell_volume   162.09374655
_cell_formula_units_Z   1
loop_
 _symmetry_equiv_pos_site_id
 _symmetry_equiv_pos_as_xyz
  1  'x, y, z'
loop_
 _atom_site_type_symbol
 _atom_site_label
 _atom_site_symmetry_multiplicity
 _atom_site_fract_x
 _atom_site_fract_y
 _atom_site_fract_z
 _atom_site_occupancy
  Rb  Rb0  1  0.99866400  0.00355600  0.99911600  1.0
  Na  Na1  1  0.17984500  0.19013600  0.45017400  1.0
  Cd  Cd2  1  0.80788300  0.82923400  0.55500000  1.0
  Cd  Cd3  1  0.37714600  0.43987000  0.80583800  1.0
  Cd  Cd4  1  0.63085800  0.54664900  0.19163500  1.0
  O  O5  1  0.23842800  0.37122700  0.15191700  1.0
  O  O6  1  0.76613000  0.63456400  0.83317600  1.0
  O  O7  1  0.59818800  0.15684600  0.64677800  1.0
  O  O8  1  0.40285700  0.82792100  0.36636500  1.0
