# generated using pymatgen
data_RbPbF3
_symmetry_space_group_name_H-M   'P 1'
_cell_length_a   6.70732103
_cell_length_b   6.71000871
_cell_length_c   6.71066295
_cell_angle_alpha   118.90194810
_cell_angle_beta   118.90857718
_cell_angle_gamma   61.10357436
_symmetry_Int_Tables_number   1
_chemical_formula_structural   RbPbF3
_chemical_formula_sum   'Rb2 Pb2 F6'
_cell_volume   218.83815859
_cell_formula_units_Z   2
loop_
 _symmetry_equiv_pos_site_id
 _symmetry_equiv_pos_as_xyz
  1  'x, y, z'
loop_
 _atom_site_type_symbol
 _atom_site_label
 _atom_site_symmetry_multiplicity
 _atom_site_fract_x
 _atom_site_fract_y
 _atom_site_fract_z
 _atom_site_occupancy
  Rb  Rb0  1  0.24716500  0.21711600  0.78515900  1.0
  Rb  Rb1  1  0.74714200  0.71696200  0.28498200  1.0
  Pb  Pb2  1  0.98339600  0.95306400  0.04896900  1.0
  Pb  Pb3  1  0.48339000  0.45311600  0.54901000  1.0
  F  F4  1  0.18874100  0.62415100  0.20513200  1.0
  F  F5  1  0.82732700  0.15827300  0.37778800  1.0
  F  F6  1  0.32734900  0.12413800  0.34395000  1.0
  F  F7  1  0.68887500  0.29695700  0.87794700  1.0
  F  F8  1  0.65414400  0.79726700  0.84413000  1.0
  F  F9  1  0.15432200  0.65795900  0.70484600  1.0
