# generated using pymatgen
data_RbSrSiHO4
_symmetry_space_group_name_H-M   'P 1'
_cell_length_a   5.85668637
_cell_length_b   5.90488600
_cell_length_c   7.91372200
_cell_angle_alpha   90.00000000
_cell_angle_beta   90.00000000
_cell_angle_gamma   119.24974923
_symmetry_Int_Tables_number   1
_chemical_formula_structural   RbSrSiHO4
_chemical_formula_sum   'Rb2 Sr2 Si2 H2 O8'
_cell_volume   238.78596011
_cell_formula_units_Z   2
loop_
 _symmetry_equiv_pos_site_id
 _symmetry_equiv_pos_as_xyz
  1  'x, y, z'
loop_
 _atom_site_type_symbol
 _atom_site_label
 _atom_site_symmetry_multiplicity
 _atom_site_fract_x
 _atom_site_fract_y
 _atom_site_fract_z
 _atom_site_occupancy
  Rb  Rb0  1  0.64027100  0.28171000  0.76864100  1.0
  Rb  Rb1  1  0.35972900  0.71829000  0.26864100  1.0
  Sr  Sr2  1  0.98734700  0.99104500  0.51551700  1.0
  Sr  Sr3  1  0.01265300  0.00895500  0.01551700  1.0
  Si  Si4  1  0.31134700  0.62172000  0.75435500  1.0
  Si  Si5  1  0.68865300  0.37828000  0.25435500  1.0
  H  H6  1  0.49224300  0.53896600  0.99346600  1.0
  H  H7  1  0.50775700  0.46103400  0.49346600  1.0
  O  O8  1  0.14956800  0.78257000  0.76173500  1.0
  O  O9  1  0.85043200  0.21743000  0.26173500  1.0
  O  O10  1  0.12173800  0.30474400  0.76024000  1.0
  O  O11  1  0.87826200  0.69525600  0.26024000  1.0
  O  O12  1  0.52291400  0.70780500  0.59767900  1.0
  O  O13  1  0.47708600  0.29219500  0.09767900  1.0
  O  O14  1  0.50898800  0.69846800  0.93136500  1.0
  O  O15  1  0.49101200  0.30153200  0.43136500  1.0
