# generated using pymatgen
data_Sb2I2F11
_symmetry_space_group_name_H-M   'P 1'
_cell_length_a   5.58344007
_cell_length_b   8.00978394
_cell_length_c   8.00978394
_cell_angle_alpha   64.81706602
_cell_angle_beta   79.39793210
_cell_angle_gamma   79.39793210
_symmetry_Int_Tables_number   1
_chemical_formula_structural   Sb2I2F11
_chemical_formula_sum   'Sb2 I2 F11'
_cell_volume   316.37625658
_cell_formula_units_Z   1
loop_
 _symmetry_equiv_pos_site_id
 _symmetry_equiv_pos_as_xyz
  1  'x, y, z'
loop_
 _atom_site_type_symbol
 _atom_site_label
 _atom_site_symmetry_multiplicity
 _atom_site_fract_x
 _atom_site_fract_y
 _atom_site_fract_z
 _atom_site_occupancy
  Sb  Sb0  1  0.54659800  0.64269500  0.65183900  1.0
  Sb  Sb1  1  0.45340200  0.34816100  0.35730500  1.0
  I  I2  1  0.86861000  0.92573900  0.93568700  1.0
  I  I3  1  0.13139000  0.06431300  0.07426100  1.0
  F  F4  1  0.74415000  0.42810100  0.79846500  1.0
  F  F5  1  0.25585000  0.20153500  0.57189900  1.0
  F  F6  1  0.82016800  0.72156400  0.47087900  1.0
  F  F7  1  0.17983200  0.52912100  0.27843600  1.0
  F  F8  1  0.50000000  0.48102900  0.51897100  1.0
  F  F9  1  0.41115500  0.22262300  0.20896300  1.0
  F  F10  1  0.58884500  0.79103700  0.77737700  1.0
  F  F11  1  0.73600200  0.18311300  0.44975500  1.0
  F  F12  1  0.26399800  0.55024500  0.81688700  1.0
  F  F13  1  0.66069100  0.51272400  0.16600000  1.0
  F  F14  1  0.33930900  0.83400000  0.48727600  1.0
