# generated using pymatgen
data_Sb2Pt3
_symmetry_space_group_name_H-M   'P 1'
_cell_length_a   5.40563000
_cell_length_b   6.58610000
_cell_length_c   6.99532989
_cell_angle_alpha   118.08297733
_cell_angle_beta   112.72907891
_cell_angle_gamma   90.00000001
_symmetry_Int_Tables_number   1
_chemical_formula_structural   Sb2Pt3
_chemical_formula_sum   'Sb4 Pt6'
_cell_volume   197.53588422
_cell_formula_units_Z   2
loop_
 _symmetry_equiv_pos_site_id
 _symmetry_equiv_pos_as_xyz
  1  'x, y, z'
loop_
 _atom_site_type_symbol
 _atom_site_label
 _atom_site_symmetry_multiplicity
 _atom_site_fract_x
 _atom_site_fract_y
 _atom_site_fract_z
 _atom_site_occupancy
  Sb  Sb0  1  0.65526300  0.39520800  0.31052500  1.0
  Sb  Sb1  1  0.34473700  0.60479200  0.68947500  1.0
  Sb  Sb2  1  0.84473800  0.08468300  0.68947600  1.0
  Sb  Sb3  1  0.15526200  0.91531700  0.31052400  1.0
  Pt  Pt4  1  0.10913500  0.47962100  0.21827000  1.0
  Pt  Pt5  1  0.89086500  0.52037900  0.78173000  1.0
  Pt  Pt6  1  0.60913500  0.73864900  0.21827000  1.0
  Pt  Pt7  1  0.39086500  0.26135100  0.78173000  1.0
  Pt  Pt8  1  0.75000000  1.00000000  1.00000000  1.0
  Pt  Pt9  1  0.25000000  1.00000000  1.00000000  1.0
