# generated using pymatgen
data_Sb2Te2Se
_symmetry_space_group_name_H-M   'P 1'
_cell_length_a   4.24088407
_cell_length_b   4.24088407
_cell_length_c   10.68381205
_cell_angle_alpha   78.55236416
_cell_angle_beta   78.55236416
_cell_angle_gamma   59.99999893
_symmetry_Int_Tables_number   1
_chemical_formula_structural   Sb2Te2Se
_chemical_formula_sum   'Sb2 Te2 Se1'
_cell_volume   161.97735886
_cell_formula_units_Z   1
loop_
 _symmetry_equiv_pos_site_id
 _symmetry_equiv_pos_as_xyz
  1  'x, y, z'
loop_
 _atom_site_type_symbol
 _atom_site_label
 _atom_site_symmetry_multiplicity
 _atom_site_fract_x
 _atom_site_fract_y
 _atom_site_fract_z
 _atom_site_occupancy
  Sb  Sb0  1  0.89091000  0.89091000  0.32727000  1.0
  Sb  Sb1  1  0.10909000  0.10909000  0.67273000  1.0
  Te  Te2  1  0.71977000  0.71977000  0.84069000  1.0
  Te  Te3  1  0.28023000  0.28023000  0.15931000  1.0
  Se  Se4  1  0.50000000  0.50000000  0.50000000  1.0
