# generated using pymatgen
data_SbF5
_symmetry_space_group_name_H-M   'P 1'
_cell_length_a   5.53566965
_cell_length_b   5.54903529
_cell_length_c   7.91795591
_cell_angle_alpha   109.55193060
_cell_angle_beta   96.91461448
_cell_angle_gamma   110.22636932
_symmetry_Int_Tables_number   1
_chemical_formula_structural   SbF5
_chemical_formula_sum   'Sb2 F10'
_cell_volume   207.25496653
_cell_formula_units_Z   2
loop_
 _symmetry_equiv_pos_site_id
 _symmetry_equiv_pos_as_xyz
  1  'x, y, z'
loop_
 _atom_site_type_symbol
 _atom_site_label
 _atom_site_symmetry_multiplicity
 _atom_site_fract_x
 _atom_site_fract_y
 _atom_site_fract_z
 _atom_site_occupancy
  Sb  Sb0  1  0.00434400  0.99971600  0.99936600  1.0
  Sb  Sb1  1  0.99872000  0.49800000  0.49844800  1.0
  F  F2  1  0.91493500  0.16485800  0.24792100  1.0
  F  F3  1  0.09008300  0.83230900  0.74983400  1.0
  F  F4  1  0.78648400  0.63048500  0.38209700  1.0
  F  F5  1  0.24837300  0.90005600  0.11719500  1.0
  F  F6  1  0.28267300  0.34734600  0.05018100  1.0
  F  F7  1  0.30016900  0.72236900  0.44939100  1.0
  F  F8  1  0.72579600  0.65311900  0.95056500  1.0
  F  F9  1  0.69562200  0.27429300  0.54712100  1.0
  F  F10  1  0.76175700  0.09804500  0.87880100  1.0
  F  F11  1  0.20867600  0.36363500  0.61495900  1.0
