# generated using pymatgen
data_SbPbBrO2
_symmetry_space_group_name_H-M   'P 1'
_cell_length_a   3.93193000
_cell_length_b   3.93193000
_cell_length_c   7.07096901
_cell_angle_alpha   106.14286218
_cell_angle_beta   106.14286218
_cell_angle_gamma   90.00000000
_symmetry_Int_Tables_number   1
_chemical_formula_structural   SbPbBrO2
_chemical_formula_sum   'Sb1 Pb1 Br1 O2'
_cell_volume   100.51255471
_cell_formula_units_Z   1
loop_
 _symmetry_equiv_pos_site_id
 _symmetry_equiv_pos_as_xyz
  1  'x, y, z'
loop_
 _atom_site_type_symbol
 _atom_site_label
 _atom_site_symmetry_multiplicity
 _atom_site_fract_x
 _atom_site_fract_y
 _atom_site_fract_z
 _atom_site_occupancy
  Sb  Sb0  1  0.32894600  0.32894600  0.65789200  1.0
  Pb  Pb1  1  0.63881400  0.63881400  0.27762800  1.0
  Br  Br2  1  0.99800700  0.99800700  0.99601400  1.0
  O  O3  1  0.75501700  0.25501700  0.51003400  1.0
  O  O4  1  0.25501700  0.75501700  0.51003400  1.0
