# generated using pymatgen
data_Sc(Fe2P)2
_symmetry_space_group_name_H-M   'P 1'
_cell_length_a   3.60127000
_cell_length_b   6.86832900
_cell_length_c   6.86832900
_cell_angle_alpha   90.00000000
_cell_angle_beta   90.00000000
_cell_angle_gamma   90.00000000
_symmetry_Int_Tables_number   1
_chemical_formula_structural   Sc(Fe2P)2
_chemical_formula_sum   'Sc2 Fe8 P4'
_cell_volume   169.88610662
_cell_formula_units_Z   2
loop_
 _symmetry_equiv_pos_site_id
 _symmetry_equiv_pos_as_xyz
  1  'x, y, z'
loop_
 _atom_site_type_symbol
 _atom_site_label
 _atom_site_symmetry_multiplicity
 _atom_site_fract_x
 _atom_site_fract_y
 _atom_site_fract_z
 _atom_site_occupancy
  Sc  Sc0  1  0.50000000  0.00000000  0.00000000  1.0
  Sc  Sc1  1  1.00000000  0.50000000  0.50000000  1.0
  Fe  Fe2  1  1.00000000  0.34030900  0.08357300  1.0
  Fe  Fe3  1  0.50000000  0.58357300  0.15969100  1.0
  Fe  Fe4  1  0.50000000  0.41642700  0.84030900  1.0
  Fe  Fe5  1  1.00000000  0.65969100  0.91642700  1.0
  Fe  Fe6  1  0.50000000  0.15969100  0.58357300  1.0
  Fe  Fe7  1  0.50000000  0.84030900  0.41642700  1.0
  Fe  Fe8  1  0.00000000  0.08357300  0.34030900  1.0
  Fe  Fe9  1  1.00000000  0.91642700  0.65969100  1.0
  P  P10  1  1.00000000  0.78144700  0.21855300  1.0
  P  P11  1  0.50000000  0.71855300  0.71855300  1.0
  P  P12  1  0.50000000  0.28144700  0.28144700  1.0
  P  P13  1  0.00000000  0.21855300  0.78144700  1.0
