# generated using pymatgen
data_Sc2FeSi2
_symmetry_space_group_name_H-M   'P 1'
_cell_length_a   3.98335800
_cell_length_b   5.32670480
_cell_length_c   8.51060609
_cell_angle_alpha   82.19363145
_cell_angle_beta   76.46595112
_cell_angle_gamma   68.04337838
_symmetry_Int_Tables_number   1
_chemical_formula_structural   Sc2FeSi2
_chemical_formula_sum   'Sc4 Fe2 Si4'
_cell_volume   162.59678616
_cell_formula_units_Z   2
loop_
 _symmetry_equiv_pos_site_id
 _symmetry_equiv_pos_as_xyz
  1  'x, y, z'
loop_
 _atom_site_type_symbol
 _atom_site_label
 _atom_site_symmetry_multiplicity
 _atom_site_fract_x
 _atom_site_fract_y
 _atom_site_fract_z
 _atom_site_occupancy
  Sc  Sc0  1  0.81495700  0.26213400  0.10795200  1.0
  Sc  Sc1  1  0.00077400  0.67065500  0.32779700  1.0
  Sc  Sc2  1  0.18504300  0.73786600  0.89204800  1.0
  Sc  Sc3  1  0.99922600  0.32934500  0.67220300  1.0
  Fe  Fe4  1  0.72937700  0.91460300  0.62664300  1.0
  Fe  Fe5  1  0.27062300  0.08539700  0.37335700  1.0
  Si  Si6  1  0.49311500  0.13979600  0.87397400  1.0
  Si  Si7  1  0.35355500  0.72776200  0.56512800  1.0
  Si  Si8  1  0.50688500  0.86020400  0.12602600  1.0
  Si  Si9  1  0.64644500  0.27223800  0.43487200  1.0
