# generated using pymatgen
data_Sc3OsC4
_symmetry_space_group_name_H-M   'P 1'
_cell_length_a   3.35876172
_cell_length_b   4.48401000
_cell_length_c   6.80590856
_cell_angle_alpha   109.23359885
_cell_angle_beta   104.25879181
_cell_angle_gamma   90.00000000
_symmetry_Int_Tables_number   1
_chemical_formula_structural   Sc3OsC4
_chemical_formula_sum   'Sc3 Os1 C4'
_cell_volume   93.42964600
_cell_formula_units_Z   1
loop_
 _symmetry_equiv_pos_site_id
 _symmetry_equiv_pos_as_xyz
  1  'x, y, z'
loop_
 _atom_site_type_symbol
 _atom_site_label
 _atom_site_symmetry_multiplicity
 _atom_site_fract_x
 _atom_site_fract_y
 _atom_site_fract_z
 _atom_site_occupancy
  C  C8  1  0.62766850  0.78841000  0.25561750  1.0
  C  C9  1  0.62766850  0.46720750  0.25561750  1.0
  C  C12  1  0.37233150  0.53279250  0.74438250  1.0
  C  C13  1  0.37233150  0.21159000  0.74438250  1.0
  Os  Os6  1  0.50000000  0.00000000  0.00000000  1.0
  Sc  Sc0  1  0.00000000  0.50000000  0.00000000  1.0
  Sc  Sc2  1  0.19055500  0.19064050  0.38128100  1.0
  Sc  Sc4  1  0.80944500  0.80935950  0.61871900  1.0
