# generated using pymatgen
data_Sc5Ga3
_symmetry_space_group_name_H-M   'P 1'
_cell_length_a   5.96473008
_cell_length_b   8.09202000
_cell_length_c   8.11987959
_cell_angle_alpha   60.11343298
_cell_angle_beta   89.34915495
_cell_angle_gamma   88.69374331
_symmetry_Int_Tables_number   1
_chemical_formula_structural   Sc5Ga3
_chemical_formula_sum   'Sc10 Ga6'
_cell_volume   339.71158918
_cell_formula_units_Z   2
loop_
 _symmetry_equiv_pos_site_id
 _symmetry_equiv_pos_as_xyz
  1  'x, y, z'
loop_
 _atom_site_type_symbol
 _atom_site_label
 _atom_site_symmetry_multiplicity
 _atom_site_fract_x
 _atom_site_fract_y
 _atom_site_fract_z
 _atom_site_occupancy
  Sc  Sc0  1  0.50000000  0.82144200  0.35711600  1.0
  Sc  Sc1  1  0.50000000  0.17855800  0.64288400  1.0
  Sc  Sc2  1  0.75518400  0.50105500  0.24090600  1.0
  Sc  Sc3  1  0.75518400  0.74196100  0.75909400  1.0
  Sc  Sc4  1  0.24481600  0.49894500  0.75909400  1.0
  Sc  Sc5  1  0.24481600  0.25803900  0.24090600  1.0
  Sc  Sc6  1  0.25774600  0.73671900  0.00000000  1.0
  Sc  Sc7  1  0.74225400  0.26328100  0.00000000  1.0
  Sc  Sc8  1  0.00000000  0.84523500  0.30953000  1.0
  Sc  Sc9  1  0.00000000  0.15476500  0.69047000  1.0
  Ga  Ga10  1  0.70747900  0.90340200  0.00000000  1.0
  Ga  Ga11  1  0.29252100  0.09659800  1.00000000  1.0
  Ga  Ga12  1  0.77245700  0.50018100  0.59936100  1.0
  Ga  Ga13  1  0.77245700  0.09954200  0.40063900  1.0
  Ga  Ga14  1  0.22754300  0.49981900  0.40063900  1.0
  Ga  Ga15  1  0.22754300  0.90045800  0.59936100  1.0
