# generated using pymatgen
data_ScBC
_symmetry_space_group_name_H-M   'P 1'
_cell_length_a   2.91874200
_cell_length_b   2.91874224
_cell_length_c   7.32082700
_cell_angle_alpha   90.00000000
_cell_angle_beta   90.00000000
_cell_angle_gamma   119.99999725
_symmetry_Int_Tables_number   1
_chemical_formula_structural   ScBC
_chemical_formula_sum   'Sc2 B2 C2'
_cell_volume   54.01100248
_cell_formula_units_Z   2
loop_
 _symmetry_equiv_pos_site_id
 _symmetry_equiv_pos_as_xyz
  1  'x, y, z'
loop_
 _atom_site_type_symbol
 _atom_site_label
 _atom_site_symmetry_multiplicity
 _atom_site_fract_x
 _atom_site_fract_y
 _atom_site_fract_z
 _atom_site_occupancy
  Sc  Sc0  1  0.00000000  0.00000000  0.50000000  1.0
  Sc  Sc1  1  0.00000000  0.00000000  0.00000000  1.0
  B  B2  1  0.66666667  0.33333333  0.25000000  1.0
  B  B3  1  0.33333333  0.66666667  0.75000000  1.0
  C  C4  1  0.66666667  0.33333333  0.75000000  1.0
  C  C5  1  0.33333333  0.66666667  0.25000000  1.0
