# generated using pymatgen
data_ScSiPt2
_symmetry_space_group_name_H-M   'P 1'
_cell_length_a   3.71999800
_cell_length_b   5.29372690
_cell_length_c   7.02743300
_cell_angle_alpha   90.00000000
_cell_angle_beta   90.00000000
_cell_angle_gamma   110.57046492
_symmetry_Int_Tables_number   1
_chemical_formula_structural   ScSiPt2
_chemical_formula_sum   'Sc2 Si2 Pt4'
_cell_volume   129.56524090
_cell_formula_units_Z   2
loop_
 _symmetry_equiv_pos_site_id
 _symmetry_equiv_pos_as_xyz
  1  'x, y, z'
loop_
 _atom_site_type_symbol
 _atom_site_label
 _atom_site_symmetry_multiplicity
 _atom_site_fract_x
 _atom_site_fract_y
 _atom_site_fract_z
 _atom_site_occupancy
  Sc  Sc0  1  0.95151700  0.90303400  0.75000000  1.0
  Sc  Sc1  1  0.04848300  0.09696600  0.25000000  1.0
  Si  Si2  1  0.23275700  0.46551400  0.75000000  1.0
  Si  Si3  1  0.76724300  0.53448600  0.25000000  1.0
  Pt  Pt4  1  0.36166700  0.72333400  0.45196900  1.0
  Pt  Pt5  1  0.63833300  0.27666600  0.54803100  1.0
  Pt  Pt6  1  0.63833300  0.27666600  0.95196900  1.0
  Pt  Pt7  1  0.36166700  0.72333400  0.04803100  1.0
