# generated using pymatgen
data_SiIr3
_symmetry_space_group_name_H-M   'P 1'
_cell_length_a   5.28322400
_cell_length_b   5.49261481
_cell_length_c   5.28322400
_cell_angle_alpha   61.25326045
_cell_angle_beta   90.00000000
_cell_angle_gamma   118.74673955
_symmetry_Int_Tables_number   1
_chemical_formula_structural   SiIr3
_chemical_formula_sum   'Si2 Ir6'
_cell_volume   112.38911279
_cell_formula_units_Z   2
loop_
 _symmetry_equiv_pos_site_id
 _symmetry_equiv_pos_as_xyz
  1  'x, y, z'
loop_
 _atom_site_type_symbol
 _atom_site_label
 _atom_site_symmetry_multiplicity
 _atom_site_fract_x
 _atom_site_fract_y
 _atom_site_fract_z
 _atom_site_occupancy
  Si  Si0  1  0.75000000  0.50000000  0.75000000  1.0
  Si  Si1  1  0.25000000  0.50000000  0.25000000  1.0
  Ir  Ir2  1  0.25000000  0.50000000  0.75000000  1.0
  Ir  Ir3  1  0.75000000  0.50000000  0.25000000  1.0
  Ir  Ir4  1  0.68484900  0.00000000  0.18484900  1.0
  Ir  Ir5  1  0.18484900  0.00000000  0.31515100  1.0
  Ir  Ir6  1  0.81515100  0.00000000  0.68484900  1.0
  Ir  Ir7  1  0.31515100  0.00000000  0.81515100  1.0
