# generated using pymatgen
data_SiO2
_symmetry_space_group_name_H-M   'P 1'
_cell_length_a   5.27530300
_cell_length_b   7.56900200
_cell_length_c   8.99731325
_cell_angle_alpha   114.87409557
_cell_angle_beta   90.00000000
_cell_angle_gamma   90.00000000
_symmetry_Int_Tables_number   1
_chemical_formula_structural   SiO2
_chemical_formula_sum   'Si6 O12'
_cell_volume   325.92548627
_cell_formula_units_Z   6
loop_
 _symmetry_equiv_pos_site_id
 _symmetry_equiv_pos_as_xyz
  1  'x, y, z'
loop_
 _atom_site_type_symbol
 _atom_site_label
 _atom_site_symmetry_multiplicity
 _atom_site_fract_x
 _atom_site_fract_y
 _atom_site_fract_z
 _atom_site_occupancy
  Si  Si0  1  0.75000000  0.98968600  0.39242200  1.0
  Si  Si1  1  0.25000000  0.59726400  0.60757800  1.0
  Si  Si2  1  0.75000000  0.40273600  0.39242200  1.0
  Si  Si3  1  0.25000000  0.01031400  0.60757800  1.0
  Si  Si4  1  0.75000000  0.55696100  0.11392200  1.0
  Si  Si5  1  0.25000000  0.44303900  0.88607800  1.0
  O  O6  1  0.50000000  0.00000000  0.50000000  1.0
  O  O7  1  0.50000000  0.50000000  0.50000000  1.0
  O  O8  1  1.00000000  0.50000000  0.50000000  1.0
  O  O9  1  0.00000000  0.00000000  0.50000000  1.0
  O  O10  1  0.75000000  0.78982900  0.22654600  1.0
  O  O11  1  0.25000000  0.56328300  0.77345400  1.0
  O  O12  1  0.75000000  0.43671700  0.22654600  1.0
  O  O13  1  0.25000000  0.21017100  0.77345400  1.0
  O  O14  1  0.75000000  0.16978500  0.33957000  1.0
  O  O15  1  0.25000000  0.83021500  0.66043000  1.0
  O  O16  1  0.00000000  0.50000000  0.00000000  1.0
  O  O17  1  0.50000000  0.50000000  0.00000000  1.0
