# generated using pymatgen
data_Sm2Al3Ge4
_symmetry_space_group_name_H-M   'P 1'
_cell_length_a   6.06420200
_cell_length_b   7.96798400
_cell_length_c   8.07664723
_cell_angle_alpha   90.00000000
_cell_angle_beta   112.05001429
_cell_angle_gamma   90.00000000
_symmetry_Int_Tables_number   1
_chemical_formula_structural   Sm2Al3Ge4
_chemical_formula_sum   'Sm4 Al6 Ge8'
_cell_volume   361.71434110
_cell_formula_units_Z   2
loop_
 _symmetry_equiv_pos_site_id
 _symmetry_equiv_pos_as_xyz
  1  'x, y, z'
loop_
 _atom_site_type_symbol
 _atom_site_label
 _atom_site_symmetry_multiplicity
 _atom_site_fract_x
 _atom_site_fract_y
 _atom_site_fract_z
 _atom_site_occupancy
  Sm  Sm0  1  0.11393100  0.41738800  0.22786200  1.0
  Sm  Sm1  1  0.88606900  0.58261200  0.77213800  1.0
  Sm  Sm2  1  0.38606900  0.91738800  0.77213800  1.0
  Sm  Sm3  1  0.61393100  0.08261200  0.22786200  1.0
  Al  Al4  1  0.00000000  0.00000000  0.00000000  1.0
  Al  Al5  1  0.50000000  0.50000000  0.00000000  1.0
  Al  Al6  1  0.03329200  0.25000000  0.56658400  1.0
  Al  Al7  1  0.46670800  0.75000000  0.43341600  1.0
  Al  Al8  1  0.96670800  0.75000000  0.43341600  1.0
  Al  Al9  1  0.53329200  0.25000000  0.56658400  1.0
  Ge  Ge10  1  0.20268400  0.25000000  0.90536800  1.0
  Ge  Ge11  1  0.29731600  0.75000000  0.09463200  1.0
  Ge  Ge12  1  0.79731600  0.75000000  0.09463200  1.0
  Ge  Ge13  1  0.70268400  0.25000000  0.90536800  1.0
  Ge  Ge14  1  0.18512800  0.05089200  0.37025600  1.0
  Ge  Ge15  1  0.81487200  0.94910800  0.62974400  1.0
  Ge  Ge16  1  0.31487200  0.55089200  0.62974400  1.0
  Ge  Ge17  1  0.68512800  0.44910800  0.37025600  1.0
