# generated using pymatgen
data_Sm2MnRhO6
_symmetry_space_group_name_H-M   'P 1'
_cell_length_a   5.48202600
_cell_length_b   5.86103400
_cell_length_c   7.59361698
_cell_angle_alpha   90.00000000
_cell_angle_beta   91.66939005
_cell_angle_gamma   90.00000000
_symmetry_Int_Tables_number   1
_chemical_formula_structural   Sm2MnRhO6
_chemical_formula_sum   'Sm4 Mn2 Rh2 O12'
_cell_volume   243.88194580
_cell_formula_units_Z   2
loop_
 _symmetry_equiv_pos_site_id
 _symmetry_equiv_pos_as_xyz
  1  'x, y, z'
loop_
 _atom_site_type_symbol
 _atom_site_label
 _atom_site_symmetry_multiplicity
 _atom_site_fract_x
 _atom_site_fract_y
 _atom_site_fract_z
 _atom_site_occupancy
  Sm  Sm0  1  0.52227200  0.42582800  0.24901800  1.0
  Sm  Sm1  1  0.97772800  0.92582800  0.25098200  1.0
  Sm  Sm2  1  0.47772800  0.57417200  0.75098200  1.0
  Sm  Sm3  1  0.02227200  0.07417200  0.74901800  1.0
  Mn  Mn4  1  1.00000000  0.50000000  1.00000000  1.0
  Mn  Mn5  1  0.50000000  0.00000000  0.50000000  1.0
  Rh  Rh6  1  0.00000000  0.50000000  0.50000000  1.0
  Rh  Rh7  1  0.50000000  0.00000000  0.00000000  1.0
  O  O8  1  0.38779400  0.03811300  0.25586200  1.0
  O  O9  1  0.11220600  0.53811300  0.24413800  1.0
  O  O10  1  0.61220600  0.96188700  0.74413800  1.0
  O  O11  1  0.88779400  0.46188700  0.75586200  1.0
  O  O12  1  0.81111500  0.19604200  0.05535400  1.0
  O  O13  1  0.68888500  0.69604200  0.44464600  1.0
  O  O14  1  0.18738800  0.80498200  0.55257100  1.0
  O  O15  1  0.31261200  0.30498200  0.94742900  1.0
  O  O16  1  0.18888500  0.80395800  0.94464600  1.0
  O  O17  1  0.31111500  0.30395800  0.55535400  1.0
  O  O18  1  0.81261200  0.19501800  0.44742900  1.0
  O  O19  1  0.68738800  0.69501800  0.05257100  1.0
