# generated using pymatgen
data_Sm3Gd
_symmetry_space_group_name_H-M   'P 1'
_cell_length_a   5.88440400
_cell_length_b   7.27433400
_cell_length_c   7.27433397
_cell_angle_alpha   120.00000015
_cell_angle_beta   90.00000000
_cell_angle_gamma   90.00000000
_symmetry_Int_Tables_number   1
_chemical_formula_structural   Sm3Gd
_chemical_formula_sum   'Sm6 Gd2'
_cell_volume   269.66189802
_cell_formula_units_Z   2
loop_
 _symmetry_equiv_pos_site_id
 _symmetry_equiv_pos_as_xyz
  1  'x, y, z'
loop_
 _atom_site_type_symbol
 _atom_site_label
 _atom_site_symmetry_multiplicity
 _atom_site_fract_x
 _atom_site_fract_y
 _atom_site_fract_z
 _atom_site_occupancy
  Sm  Sm0  1  0.75000000  0.83073500  0.16926600  1.0
  Sm  Sm1  1  0.75000000  0.33853100  0.16926600  1.0
  Sm  Sm2  1  0.75000000  0.83073500  0.66147000  1.0
  Sm  Sm3  1  0.25000000  0.16926500  0.83073400  1.0
  Sm  Sm4  1  0.25000000  0.66146900  0.83073400  1.0
  Sm  Sm5  1  0.25000000  0.16926500  0.33853000  1.0
  Gd  Gd6  1  0.25000000  0.66666667  0.33333333  1.0
  Gd  Gd7  1  0.75000000  0.33333333  0.66666667  1.0
