# generated using pymatgen
data_Sm3Sc
_symmetry_space_group_name_H-M   'P 1'
_cell_length_a   5.66526400
_cell_length_b   7.19288000
_cell_length_c   7.19287930
_cell_angle_alpha   120.00000321
_cell_angle_beta   90.00000000
_cell_angle_gamma   90.00000000
_symmetry_Int_Tables_number   1
_chemical_formula_structural   Sm3Sc
_chemical_formula_sum   'Sm6 Sc2'
_cell_volume   253.83783669
_cell_formula_units_Z   2
loop_
 _symmetry_equiv_pos_site_id
 _symmetry_equiv_pos_as_xyz
  1  'x, y, z'
loop_
 _atom_site_type_symbol
 _atom_site_label
 _atom_site_symmetry_multiplicity
 _atom_site_fract_x
 _atom_site_fract_y
 _atom_site_fract_z
 _atom_site_occupancy
  Sm  Sm0  1  0.75000000  0.83051900  0.16948100  1.0
  Sm  Sm1  1  0.75000000  0.33896200  0.16948100  1.0
  Sm  Sm2  1  0.75000000  0.83051900  0.66103800  1.0
  Sm  Sm3  1  0.25000000  0.16948100  0.33896200  1.0
  Sm  Sm4  1  0.25000000  0.66103800  0.83051900  1.0
  Sm  Sm5  1  0.25000000  0.16948100  0.83051900  1.0
  Sc  Sc6  1  0.75000000  0.33333333  0.66666667  1.0
  Sc  Sc7  1  0.25000000  0.66666667  0.33333333  1.0
