# generated using pymatgen
data_Sm5Bi3
_symmetry_space_group_name_H-M   'P 1'
_cell_length_a   6.49301500
_cell_length_b   9.39357722
_cell_length_c   9.39357713
_cell_angle_alpha   119.94169370
_cell_angle_beta   90.00000000
_cell_angle_gamma   90.00000000
_symmetry_Int_Tables_number   1
_chemical_formula_structural   Sm5Bi3
_chemical_formula_sum   'Sm10 Bi6'
_cell_volume   496.47103465
_cell_formula_units_Z   2
loop_
 _symmetry_equiv_pos_site_id
 _symmetry_equiv_pos_as_xyz
  1  'x, y, z'
loop_
 _atom_site_type_symbol
 _atom_site_label
 _atom_site_symmetry_multiplicity
 _atom_site_fract_x
 _atom_site_fract_y
 _atom_site_fract_z
 _atom_site_occupancy
  Sm  Sm0  1  0.50000000  0.66666667  0.33333333  1.0
  Sm  Sm1  1  0.50000000  0.33333333  0.66666667  1.0
  Sm  Sm2  1  1.00000000  0.33333333  0.66666667  1.0
  Sm  Sm3  1  1.00000000  0.66666667  0.33333333  1.0
  Sm  Sm4  1  0.25000100  0.75357200  0.75357200  1.0
  Sm  Sm5  1  0.25000000  0.24630200  0.99989800  1.0
  Sm  Sm6  1  0.25000000  0.99989800  0.24630200  1.0
  Sm  Sm7  1  0.75000100  0.24642800  0.24642800  1.0
  Sm  Sm8  1  0.75000000  0.75369800  0.00010200  1.0
  Sm  Sm9  1  0.75000000  0.00010200  0.75369800  1.0
  Bi  Bi10  1  0.25000700  0.38770700  0.38770700  1.0
  Bi  Bi11  1  0.24999600  0.61221400  0.99999100  1.0
  Bi  Bi12  1  0.24999600  0.99999100  0.61221400  1.0
  Bi  Bi13  1  0.75000700  0.61229300  0.61229300  1.0
  Bi  Bi14  1  0.74999600  0.38778600  0.00000900  1.0
  Bi  Bi15  1  0.74999600  0.00000900  0.38778600  1.0
