# generated using pymatgen
data_Sm5Si3
_symmetry_space_group_name_H-M   'P 1'
_cell_length_a   6.56657900
_cell_length_b   8.65469200
_cell_length_c   8.65469275
_cell_angle_alpha   60.00000286
_cell_angle_beta   90.00000000
_cell_angle_gamma   90.00000000
_symmetry_Int_Tables_number   1
_chemical_formula_structural   Sm5Si3
_chemical_formula_sum   'Sm10 Si6'
_cell_volume   425.96418899
_cell_formula_units_Z   2
loop_
 _symmetry_equiv_pos_site_id
 _symmetry_equiv_pos_as_xyz
  1  'x, y, z'
loop_
 _atom_site_type_symbol
 _atom_site_label
 _atom_site_symmetry_multiplicity
 _atom_site_fract_x
 _atom_site_fract_y
 _atom_site_fract_z
 _atom_site_occupancy
  Sm  Sm0  1  0.50000000  0.66666667  0.66666667  1.0
  Sm  Sm1  1  0.50000000  0.33333333  0.33333333  1.0
  Sm  Sm2  1  1.00000000  0.33333333  0.33333333  1.0
  Sm  Sm3  1  1.00000000  0.66666667  0.66666667  1.0
  Sm  Sm4  1  0.75000000  0.24727300  1.00000000  1.0
  Sm  Sm5  1  0.75000000  0.00000000  0.75272700  1.0
  Sm  Sm6  1  0.75000000  0.75272700  0.24727300  1.0
  Sm  Sm7  1  0.25000000  0.75272700  1.00000000  1.0
  Sm  Sm8  1  0.25000000  0.00000000  0.24727300  1.0
  Sm  Sm9  1  0.25000000  0.24727300  0.75272700  1.0
  Si  Si10  1  0.75000000  0.60908800  1.00000000  1.0
  Si  Si11  1  0.75000000  0.00000000  0.39091200  1.0
  Si  Si12  1  0.75000000  0.39091200  0.60908800  1.0
  Si  Si13  1  0.25000000  0.39091200  1.00000000  1.0
  Si  Si14  1  0.25000000  0.00000000  0.60908800  1.0
  Si  Si15  1  0.25000000  0.60908800  0.39091200  1.0
