# generated using pymatgen
data_SmAl3
_symmetry_space_group_name_H-M   'P 1'
_cell_length_a   4.61979400
_cell_length_b   6.41118200
_cell_length_c   6.41118245
_cell_angle_alpha   119.99999768
_cell_angle_beta   90.00000000
_cell_angle_gamma   90.00000000
_symmetry_Int_Tables_number   1
_chemical_formula_structural   SmAl3
_chemical_formula_sum   'Sm2 Al6'
_cell_volume   164.44834017
_cell_formula_units_Z   2
loop_
 _symmetry_equiv_pos_site_id
 _symmetry_equiv_pos_as_xyz
  1  'x, y, z'
loop_
 _atom_site_type_symbol
 _atom_site_label
 _atom_site_symmetry_multiplicity
 _atom_site_fract_x
 _atom_site_fract_y
 _atom_site_fract_z
 _atom_site_occupancy
  Sm  Sm0  1  0.75000000  0.33333333  0.66666667  1.0
  Sm  Sm1  1  0.25000000  0.66666667  0.33333333  1.0
  Al  Al2  1  0.25000000  0.14341200  0.28682400  1.0
  Al  Al3  1  0.75000000  0.85658800  0.14341100  1.0
  Al  Al4  1  0.75000000  0.28682300  0.14341100  1.0
  Al  Al5  1  0.75000000  0.85658800  0.71317600  1.0
  Al  Al6  1  0.25000000  0.14341200  0.85658900  1.0
  Al  Al7  1  0.25000000  0.71317700  0.85658900  1.0
