# generated using pymatgen
data_SmAlNi
_symmetry_space_group_name_H-M   'P 1'
_cell_length_a   5.36019471
_cell_length_b   5.36097595
_cell_length_c   8.73934500
_cell_angle_alpha   90.00000000
_cell_angle_beta   90.00000000
_cell_angle_gamma   118.21525944
_symmetry_Int_Tables_number   1
_chemical_formula_structural   SmAlNi
_chemical_formula_sum   'Sm4 Al4 Ni4'
_cell_volume   221.29252350
_cell_formula_units_Z   4
loop_
 _symmetry_equiv_pos_site_id
 _symmetry_equiv_pos_as_xyz
  1  'x, y, z'
loop_
 _atom_site_type_symbol
 _atom_site_label
 _atom_site_symmetry_multiplicity
 _atom_site_fract_x
 _atom_site_fract_y
 _atom_site_fract_z
 _atom_site_occupancy
  Sm  Sm0  1  0.34307400  0.65705100  0.46198600  1.0
  Sm  Sm1  1  0.66992800  0.32985900  0.56628400  1.0
  Sm  Sm2  1  0.66992800  0.32985900  0.93371600  1.0
  Sm  Sm3  1  0.34307400  0.65705100  0.03801400  1.0
  Al  Al4  1  0.84058400  0.15941900  0.25000000  1.0
  Al  Al5  1  0.84143100  0.66741200  0.25000000  1.0
  Al  Al6  1  0.33273600  0.15860900  0.25000000  1.0
  Al  Al7  1  0.13304900  0.86684300  0.75000000  1.0
  Ni  Ni8  1  0.14650600  0.33477500  0.75000000  1.0
  Ni  Ni9  1  0.66499300  0.85324700  0.75000000  1.0
  Ni  Ni10  1  0.00734800  0.99293700  0.48734300  1.0
  Ni  Ni11  1  0.00734800  0.99293700  0.01265700  1.0
