# generated using pymatgen
data_SmAlCu
_symmetry_space_group_name_H-M   'P 1'
_cell_length_a   4.09019800
_cell_length_b   7.12987600
_cell_length_c   7.12987622
_cell_angle_alpha   119.99999897
_cell_angle_beta   90.00000000
_cell_angle_gamma   90.00000000
_symmetry_Int_Tables_number   1
_chemical_formula_structural   SmAlCu
_chemical_formula_sum   'Sm3 Al3 Cu3'
_cell_volume   180.06899270
_cell_formula_units_Z   3
loop_
 _symmetry_equiv_pos_site_id
 _symmetry_equiv_pos_as_xyz
  1  'x, y, z'
loop_
 _atom_site_type_symbol
 _atom_site_label
 _atom_site_symmetry_multiplicity
 _atom_site_fract_x
 _atom_site_fract_y
 _atom_site_fract_z
 _atom_site_occupancy
  Sm  Sm0  1  0.50000000  0.41631400  0.41631400  1.0
  Sm  Sm1  1  0.50000000  0.00000000  0.58368600  1.0
  Sm  Sm2  1  0.50000000  0.58368600  0.00000000  1.0
  Al  Al3  1  0.00000000  0.76753300  0.76753300  1.0
  Al  Al4  1  1.00000000  0.00000000  0.23246700  1.0
  Al  Al5  1  0.00000000  0.23246700  0.00000000  1.0
  Cu  Cu6  1  0.50000000  0.00000000  0.00000000  1.0
  Cu  Cu7  1  0.00000000  0.66666667  0.33333333  1.0
  Cu  Cu8  1  0.00000000  0.33333333  0.66666667  1.0
