# generated using pymatgen
data_SmAlGe
_symmetry_space_group_name_H-M   'P 1'
_cell_length_a   4.22589000
_cell_length_b   4.22589000
_cell_length_c   7.93963713
_cell_angle_alpha   105.43387909
_cell_angle_beta   105.43387908
_cell_angle_gamma   90.00000001
_symmetry_Int_Tables_number   1
_chemical_formula_structural   SmAlGe
_chemical_formula_sum   'Sm2 Al2 Ge2'
_cell_volume   131.36213117
_cell_formula_units_Z   2
loop_
 _symmetry_equiv_pos_site_id
 _symmetry_equiv_pos_as_xyz
  1  'x, y, z'
loop_
 _atom_site_type_symbol
 _atom_site_label
 _atom_site_symmetry_multiplicity
 _atom_site_fract_x
 _atom_site_fract_y
 _atom_site_fract_z
 _atom_site_occupancy
  Sm  Sm0  1  0.33498000  0.33498000  0.66996000  1.0
  Sm  Sm1  1  0.08498000  0.58498000  0.16996000  1.0
  Al  Al2  1  0.91908800  0.91908800  0.83817600  1.0
  Al  Al3  1  0.66908800  0.16908800  0.33817600  1.0
  Ge  Ge4  1  0.50353200  0.00353200  0.00706400  1.0
  Ge  Ge5  1  0.75353200  0.75353200  0.50706400  1.0
