# generated using pymatgen
data_SmCdAu
_symmetry_space_group_name_H-M   'P 1'
_cell_length_a   3.93437600
_cell_length_b   7.98693000
_cell_length_c   7.98692976
_cell_angle_alpha   120.00000100
_cell_angle_beta   90.00000000
_cell_angle_gamma   90.00000000
_symmetry_Int_Tables_number   1
_chemical_formula_structural   SmCdAu
_chemical_formula_sum   'Sm3 Cd3 Au3'
_cell_volume   217.35329725
_cell_formula_units_Z   3
loop_
 _symmetry_equiv_pos_site_id
 _symmetry_equiv_pos_as_xyz
  1  'x, y, z'
loop_
 _atom_site_type_symbol
 _atom_site_label
 _atom_site_symmetry_multiplicity
 _atom_site_fract_x
 _atom_site_fract_y
 _atom_site_fract_z
 _atom_site_occupancy
  Sm  Sm0  1  0.00000000  0.40701600  0.40701600  1.0
  Sm  Sm1  1  0.00000000  1.00000000  0.59298400  1.0
  Sm  Sm2  1  0.00000000  0.59298400  0.00000000  1.0
  Cd  Cd3  1  0.50000000  0.73932000  0.73932000  1.0
  Cd  Cd4  1  0.50000000  0.00000000  0.26068000  1.0
  Cd  Cd5  1  0.50000000  0.26068000  1.00000000  1.0
  Au  Au6  1  0.50000000  0.66666667  0.33333333  1.0
  Au  Au7  1  0.50000000  0.33333333  0.66666667  1.0
  Au  Au8  1  0.00000000  0.00000000  0.00000000  1.0
