# generated using pymatgen
data_SmCoC2
_symmetry_space_group_name_H-M   'P 1'
_cell_length_a   3.74510431
_cell_length_b   3.74510431
_cell_length_c   7.35585096
_cell_angle_alpha   98.02743685
_cell_angle_beta   98.02743685
_cell_angle_gamma   90.03918250
_symmetry_Int_Tables_number   1
_chemical_formula_structural   SmCoC2
_chemical_formula_sum   'Sm2 Co2 C4'
_cell_volume   101.13831227
_cell_formula_units_Z   2
loop_
 _symmetry_equiv_pos_site_id
 _symmetry_equiv_pos_as_xyz
  1  'x, y, z'
loop_
 _atom_site_type_symbol
 _atom_site_label
 _atom_site_symmetry_multiplicity
 _atom_site_fract_x
 _atom_site_fract_y
 _atom_site_fract_z
 _atom_site_occupancy
  Sm  Sm0  1  0.37109200  0.51333700  0.30659800  1.0
  Sm  Sm1  1  0.51333700  0.37109200  0.80659800  1.0
  Co  Co2  1  0.93001900  0.06897000  0.50044900  1.0
  Co  Co3  1  0.06897000  0.93001900  0.00044900  1.0
  C  C4  1  0.58799400  0.95229100  0.08003700  1.0
  C  C5  1  0.95229100  0.58799400  0.58003700  1.0
  C  C6  1  0.84891500  0.99938200  0.23391600  1.0
  C  C7  1  0.99938200  0.84891500  0.73391600  1.0
