# generated using pymatgen
data_SmDyNi2
_symmetry_space_group_name_H-M   'P 1'
_cell_length_a   3.75586000
_cell_length_b   4.19503800
_cell_length_c   5.45577867
_cell_angle_alpha   90.00000000
_cell_angle_beta   110.13353870
_cell_angle_gamma   90.00000000
_symmetry_Int_Tables_number   1
_chemical_formula_structural   SmDyNi2
_chemical_formula_sum   'Sm1 Dy1 Ni2'
_cell_volume   80.70828248
_cell_formula_units_Z   1
loop_
 _symmetry_equiv_pos_site_id
 _symmetry_equiv_pos_as_xyz
  1  'x, y, z'
loop_
 _atom_site_type_symbol
 _atom_site_label
 _atom_site_symmetry_multiplicity
 _atom_site_fract_x
 _atom_site_fract_y
 _atom_site_fract_z
 _atom_site_occupancy
  Sm  Sm0  1  0.13953100  1.00000000  0.27906200  1.0
  Dy  Dy1  1  0.86242500  0.50000000  0.72485000  1.0
  Ni  Ni2  1  0.57184700  0.50000000  0.14369400  1.0
  Ni  Ni3  1  0.42619700  1.00000000  0.85239400  1.0
