# generated using pymatgen
data_SmDy3
_symmetry_space_group_name_H-M   'P 1'
_cell_length_a   5.68553700
_cell_length_b   7.26578600
_cell_length_c   7.26578578
_cell_angle_alpha   120.00000101
_cell_angle_beta   90.00000000
_cell_angle_gamma   90.00000000
_symmetry_Int_Tables_number   1
_chemical_formula_structural   SmDy3
_chemical_formula_sum   'Sm2 Dy6'
_cell_volume   259.93652525
_cell_formula_units_Z   2
loop_
 _symmetry_equiv_pos_site_id
 _symmetry_equiv_pos_as_xyz
  1  'x, y, z'
loop_
 _atom_site_type_symbol
 _atom_site_label
 _atom_site_symmetry_multiplicity
 _atom_site_fract_x
 _atom_site_fract_y
 _atom_site_fract_z
 _atom_site_occupancy
  Sm  Sm0  1  0.75000000  0.33333333  0.66666667  1.0
  Sm  Sm1  1  0.25000000  0.66666667  0.33333333  1.0
  Dy  Dy2  1  0.25000000  0.16577500  0.33155000  1.0
  Dy  Dy3  1  0.25000000  0.66845000  0.83422500  1.0
  Dy  Dy4  1  0.25000000  0.16577500  0.83422500  1.0
  Dy  Dy5  1  0.75000000  0.83422500  0.66845000  1.0
  Dy  Dy6  1  0.75000000  0.33155000  0.16577500  1.0
  Dy  Dy7  1  0.75000000  0.83422500  0.16577500  1.0
