# generated using pymatgen
data_SmInNi
_symmetry_space_group_name_H-M   'P 1'
_cell_length_a   3.91640400
_cell_length_b   7.51839400
_cell_length_c   7.51839469
_cell_angle_alpha   119.99999695
_cell_angle_beta   90.00000000
_cell_angle_gamma   90.00000000
_symmetry_Int_Tables_number   1
_chemical_formula_structural   SmInNi
_chemical_formula_sum   'Sm3 In3 Ni3'
_cell_volume   191.72040262
_cell_formula_units_Z   3
loop_
 _symmetry_equiv_pos_site_id
 _symmetry_equiv_pos_as_xyz
  1  'x, y, z'
loop_
 _atom_site_type_symbol
 _atom_site_label
 _atom_site_symmetry_multiplicity
 _atom_site_fract_x
 _atom_site_fract_y
 _atom_site_fract_z
 _atom_site_occupancy
  Sm  Sm0  1  0.50000000  1.00000000  0.41355700  1.0
  Sm  Sm1  1  0.50000000  0.41355700  1.00000000  1.0
  Sm  Sm2  1  0.50000000  0.58644300  0.58644300  1.0
  In  In3  1  1.00000000  1.00000000  0.75033200  1.0
  In  In4  1  0.00000000  0.75033200  1.00000000  1.0
  In  In5  1  0.00000000  0.24966800  0.24966800  1.0
  Ni  Ni6  1  1.00000000  0.66666667  0.33333333  1.0
  Ni  Ni7  1  1.00000000  0.33333333  0.66666667  1.0
  Ni  Ni8  1  0.50000000  0.00000000  0.00000000  1.0
