# generated using pymatgen
data_SmMn2SiC
_symmetry_space_group_name_H-M   'P 1'
_cell_length_a   3.79244800
_cell_length_b   5.65301451
_cell_length_c   7.04703000
_cell_angle_alpha   90.00000000
_cell_angle_beta   90.00000000
_cell_angle_gamma   109.59904685
_symmetry_Int_Tables_number   1
_chemical_formula_structural   SmMn2SiC
_chemical_formula_sum   'Sm2 Mn4 Si2 C2'
_cell_volume   142.32651559
_cell_formula_units_Z   2
loop_
 _symmetry_equiv_pos_site_id
 _symmetry_equiv_pos_as_xyz
  1  'x, y, z'
loop_
 _atom_site_type_symbol
 _atom_site_label
 _atom_site_symmetry_multiplicity
 _atom_site_fract_x
 _atom_site_fract_y
 _atom_site_fract_z
 _atom_site_occupancy
  Sm  Sm0  1  0.45466800  0.90933600  0.75000000  1.0
  Sm  Sm1  1  0.54533200  0.09066400  0.25000000  1.0
  Mn  Mn2  1  0.16786000  0.33572000  0.93709300  1.0
  Mn  Mn3  1  0.83214000  0.66428000  0.06290600  1.0
  Mn  Mn4  1  0.83214000  0.66428000  0.43709300  1.0
  Mn  Mn5  1  0.16786000  0.33572000  0.56290600  1.0
  Si  Si6  1  0.73444900  0.46889800  0.75000000  1.0
  Si  Si7  1  0.26555100  0.53110200  0.25000000  1.0
  C  C8  1  0.00000000  0.00000000  0.00000000  1.0
  C  C9  1  0.00000000  0.00000000  0.50000000  1.0
