# generated using pymatgen
data_SmNiGe3
_symmetry_space_group_name_H-M   'P 1'
_cell_length_a   4.13892400
_cell_length_b   4.14318600
_cell_length_c   11.10738073
_cell_angle_alpha   90.00000000
_cell_angle_beta   100.73775881
_cell_angle_gamma   90.00000000
_symmetry_Int_Tables_number   1
_chemical_formula_structural   SmNiGe3
_chemical_formula_sum   'Sm2 Ni2 Ge6'
_cell_volume   187.13791209
_cell_formula_units_Z   2
loop_
 _symmetry_equiv_pos_site_id
 _symmetry_equiv_pos_as_xyz
  1  'x, y, z'
loop_
 _atom_site_type_symbol
 _atom_site_label
 _atom_site_symmetry_multiplicity
 _atom_site_fract_x
 _atom_site_fract_y
 _atom_site_fract_z
 _atom_site_occupancy
  Sm  Sm0  1  0.16888200  0.50000000  0.33776400  1.0
  Sm  Sm1  1  0.83111800  0.50000000  0.66223600  1.0
  Ni  Ni2  1  0.39035300  0.00000000  0.78070600  1.0
  Ni  Ni3  1  0.60964700  0.00000000  0.21929400  1.0
  Ge  Ge4  1  0.94293000  0.00000000  0.88586000  1.0
  Ge  Ge5  1  0.05707000  1.00000000  0.11414000  1.0
  Ge  Ge6  1  0.71630800  1.00000000  0.43261600  1.0
  Ge  Ge7  1  0.28369200  1.00000000  0.56738400  1.0
  Ge  Ge8  1  0.55701700  0.50000000  0.11403400  1.0
  Ge  Ge9  1  0.44298300  0.50000000  0.88596600  1.0
