# generated using pymatgen
data_SmSi3Rh
_symmetry_space_group_name_H-M   'P 1'
_cell_length_a   4.20541000
_cell_length_b   4.20541000
_cell_length_c   5.75015759
_cell_angle_alpha   111.44930188
_cell_angle_beta   111.44930187
_cell_angle_gamma   90.00000001
_symmetry_Int_Tables_number   1
_chemical_formula_structural   SmSi3Rh
_chemical_formula_sum   'Sm1 Si3 Rh1'
_cell_volume   87.03979957
_cell_formula_units_Z   1
loop_
 _symmetry_equiv_pos_site_id
 _symmetry_equiv_pos_as_xyz
  1  'x, y, z'
loop_
 _atom_site_type_symbol
 _atom_site_label
 _atom_site_symmetry_multiplicity
 _atom_site_fract_x
 _atom_site_fract_y
 _atom_site_fract_z
 _atom_site_occupancy
  Sm  Sm0  1  0.99904200  0.99904200  0.99808400  1.0
  Si  Si1  1  0.41446100  0.41446100  0.82892200  1.0
  Si  Si2  1  0.26328100  0.76328100  0.52656200  1.0
  Si  Si3  1  0.76328100  0.26328100  0.52656200  1.0
  Rh  Rh4  1  0.65393500  0.65393500  0.30787000  1.0
