# generated using pymatgen
data_SmZnAgP2
_symmetry_space_group_name_H-M   'P 1'
_cell_length_a   4.15202200
_cell_length_b   4.15202154
_cell_length_c   6.72944500
_cell_angle_alpha   90.00000000
_cell_angle_beta   90.00000000
_cell_angle_gamma   120.00000365
_symmetry_Int_Tables_number   1
_chemical_formula_structural   SmZnAgP2
_chemical_formula_sum   'Sm1 Zn1 Ag1 P2'
_cell_volume   100.46831242
_cell_formula_units_Z   1
loop_
 _symmetry_equiv_pos_site_id
 _symmetry_equiv_pos_as_xyz
  1  'x, y, z'
loop_
 _atom_site_type_symbol
 _atom_site_label
 _atom_site_symmetry_multiplicity
 _atom_site_fract_x
 _atom_site_fract_y
 _atom_site_fract_z
 _atom_site_occupancy
  Sm  Sm0  1  0.66666667  0.33333333  0.98615000  1.0
  Zn  Zn1  1  0.00000000  0.00000000  0.37230400  1.0
  Ag  Ag2  1  0.33333333  0.66666667  0.63623600  1.0
  P  P3  1  0.33333333  0.66666667  0.24831400  1.0
  P  P4  1  0.00000000  0.00000000  0.75699600  1.0
