# generated using pymatgen
data_Sn7Ir2Os
_symmetry_space_group_name_H-M   'P 1'
_cell_length_a   8.22687191
_cell_length_b   8.22687191
_cell_length_c   8.23145001
_cell_angle_alpha   109.55775089
_cell_angle_beta   109.55775093
_cell_angle_gamma   109.27568227
_symmetry_Int_Tables_number   1
_chemical_formula_structural   Sn7Ir2Os
_chemical_formula_sum   'Sn14 Ir4 Os2'
_cell_volume   428.98461106
_cell_formula_units_Z   2
loop_
 _symmetry_equiv_pos_site_id
 _symmetry_equiv_pos_as_xyz
  1  'x, y, z'
loop_
 _atom_site_type_symbol
 _atom_site_label
 _atom_site_symmetry_multiplicity
 _atom_site_fract_x
 _atom_site_fract_y
 _atom_site_fract_z
 _atom_site_occupancy
  Sn  Sn0  1  0.67437600  0.00209500  1.00000000  1.0
  Sn  Sn1  1  0.00009600  0.67225200  1.00000000  1.0
  Sn  Sn2  1  0.32571500  0.32770300  0.32776700  1.0
  Sn  Sn3  1  0.99794800  0.99993600  0.67223300  1.0
  Sn  Sn4  1  0.32774800  0.99990400  1.00000000  1.0
  Sn  Sn5  1  0.99790500  0.32562400  1.00000000  1.0
  Sn  Sn6  1  0.67229700  0.67428500  0.67223300  1.0
  Sn  Sn7  1  0.00006400  0.00205200  0.32776700  1.0
  Sn  Sn8  1  0.24920600  0.49810600  0.74731200  1.0
  Sn  Sn9  1  0.50173900  0.24918600  0.75092500  1.0
  Sn  Sn10  1  0.75203300  0.24796700  0.50000000  1.0
  Sn  Sn11  1  0.50189400  0.75079400  0.25268800  1.0
  Sn  Sn12  1  0.75081400  0.49826100  0.24907500  1.0
  Sn  Sn13  1  0.25203300  0.74796700  0.50000000  1.0
  Ir  Ir14  1  0.65613600  0.65652100  1.00000000  1.0
  Ir  Ir15  1  0.34158600  0.00012300  0.34170900  1.0
  Ir  Ir16  1  0.99987700  0.65841400  0.65829100  1.0
  Ir  Ir17  1  0.34347900  0.34386400  1.00000000  1.0
  Os  Os18  1  0.65528400  0.00023100  0.65551500  1.0
  Os  Os19  1  0.99976900  0.34471600  0.34448500  1.0
