# generated using pymatgen
data_SnBr2
_symmetry_space_group_name_H-M   'P 1'
_cell_length_a   4.38365500
_cell_length_b   12.62683600
_cell_length_c   12.62683535
_cell_angle_alpha   120.00000169
_cell_angle_beta   90.00000000
_cell_angle_gamma   90.00000000
_symmetry_Int_Tables_number   1
_chemical_formula_structural   SnBr2
_chemical_formula_sum   'Sn6 Br12'
_cell_volume   605.27961622
_cell_formula_units_Z   6
loop_
 _symmetry_equiv_pos_site_id
 _symmetry_equiv_pos_as_xyz
  1  'x, y, z'
loop_
 _atom_site_type_symbol
 _atom_site_label
 _atom_site_symmetry_multiplicity
 _atom_site_fract_x
 _atom_site_fract_y
 _atom_site_fract_z
 _atom_site_occupancy
  Sn  Sn0  1  0.25000000  0.41540300  0.10857200  1.0
  Sn  Sn1  1  0.25000000  0.89142800  0.30683100  1.0
  Sn  Sn2  1  0.25000000  0.69316900  0.58459700  1.0
  Sn  Sn3  1  0.75000000  0.58459700  0.89142800  1.0
  Sn  Sn4  1  0.75000000  0.10857200  0.69316900  1.0
  Sn  Sn5  1  0.75000000  0.30683100  0.41540300  1.0
  Br  Br6  1  0.75000000  0.24570400  0.01025100  1.0
  Br  Br7  1  0.75000000  0.98974900  0.23545300  1.0
  Br  Br8  1  0.75000000  0.76454700  0.75429600  1.0
  Br  Br9  1  0.25000000  0.75429600  0.98974900  1.0
  Br  Br10  1  0.25000000  0.01025100  0.76454700  1.0
  Br  Br11  1  0.25000000  0.23545300  0.24570400  1.0
  Br  Br12  1  0.25000000  0.38513100  0.86782600  1.0
  Br  Br13  1  0.25000000  0.13217400  0.51730500  1.0
  Br  Br14  1  0.25000000  0.48269500  0.61486900  1.0
  Br  Br15  1  0.75000000  0.61486900  0.13217400  1.0
  Br  Br16  1  0.75000000  0.86782600  0.48269500  1.0
  Br  Br17  1  0.75000000  0.51730500  0.38513100  1.0
