# generated using pymatgen
data_SnSe
_symmetry_space_group_name_H-M   'P 1'
_cell_length_a   4.00164800
_cell_length_b   5.94598806
_cell_length_c   6.12512300
_cell_angle_alpha   90.00000000
_cell_angle_beta   90.00000000
_cell_angle_gamma   109.66376795
_symmetry_Int_Tables_number   1
_chemical_formula_structural   SnSe
_chemical_formula_sum   'Sn2 Se2'
_cell_volume   137.24063000
_cell_formula_units_Z   2
loop_
 _symmetry_equiv_pos_site_id
 _symmetry_equiv_pos_as_xyz
  1  'x, y, z'
loop_
 _atom_site_type_symbol
 _atom_site_label
 _atom_site_symmetry_multiplicity
 _atom_site_fract_x
 _atom_site_fract_y
 _atom_site_fract_z
 _atom_site_occupancy
  Sn  Sn0  1  0.83898900  0.67797800  0.75000000  1.0
  Sn  Sn1  1  0.16101100  0.32202200  0.25000000  1.0
  Se  Se2  1  0.16862800  0.33725600  0.75000000  1.0
  Se  Se3  1  0.83137200  0.66274400  0.25000000  1.0
