# generated using pymatgen
data_Sr(Si3N4)2
_symmetry_space_group_name_H-M   'P 1'
_cell_length_a   4.84296000
_cell_length_b   6.59228940
_cell_length_c   6.59228940
_cell_angle_alpha   73.99393198
_cell_angle_beta   68.44956820
_cell_angle_gamma   68.44956819
_symmetry_Int_Tables_number   1
_chemical_formula_structural   Sr(Si3N4)2
_chemical_formula_sum   'Sr1 Si6 N8'
_cell_volume   179.64138894
_cell_formula_units_Z   1
loop_
 _symmetry_equiv_pos_site_id
 _symmetry_equiv_pos_as_xyz
  1  'x, y, z'
loop_
 _atom_site_type_symbol
 _atom_site_label
 _atom_site_symmetry_multiplicity
 _atom_site_fract_x
 _atom_site_fract_y
 _atom_site_fract_z
 _atom_site_occupancy
  Sr  Sr0  1  0.34281000  0.50000000  0.50000000  1.0
  Si  Si1  1  0.01213500  0.04302400  0.63641700  1.0
  Si  Si2  1  0.69157500  0.36358300  0.95697700  1.0
  Si  Si3  1  0.01213500  0.63641800  0.04302300  1.0
  Si  Si4  1  0.69157500  0.95697700  0.36358300  1.0
  Si  Si5  1  0.48686000  0.87298300  0.87298300  1.0
  Si  Si6  1  0.23282600  0.12701600  0.12701700  1.0
  N  N7  1  0.78460600  0.29166500  0.70833500  1.0
  N  N8  1  0.40383700  0.98455900  0.62047600  1.0
  N  N9  1  0.88918300  0.81614400  0.81614400  1.0
  N  N10  1  0.00887200  0.01544100  0.37952400  1.0
  N  N11  1  0.78460500  0.70833600  0.29166500  1.0
  N  N12  1  0.40383700  0.62047600  0.98455900  1.0
  N  N13  1  0.00887200  0.37952400  0.01544100  1.0
  N  N14  1  0.52147100  0.18385600  0.18385600  1.0
