# generated using pymatgen
data_Sr2Al3In
_symmetry_space_group_name_H-M   'P 1'
_cell_length_a   4.91360800
_cell_length_b   6.15868007
_cell_length_c   6.21022853
_cell_angle_alpha   80.04169797
_cell_angle_beta   66.69622256
_cell_angle_gamma   66.48948915
_symmetry_Int_Tables_number   1
_chemical_formula_structural   Sr2Al3In
_chemical_formula_sum   'Sr2 Al3 In1'
_cell_volume   158.24513391
_cell_formula_units_Z   1
loop_
 _symmetry_equiv_pos_site_id
 _symmetry_equiv_pos_as_xyz
  1  'x, y, z'
loop_
 _atom_site_type_symbol
 _atom_site_label
 _atom_site_symmetry_multiplicity
 _atom_site_fract_x
 _atom_site_fract_y
 _atom_site_fract_z
 _atom_site_occupancy
  Sr  Sr0  1  0.54806800  0.20269900  0.70116500  1.0
  Sr  Sr1  1  0.45337400  0.79715500  0.29609700  1.0
  Al  Al2  1  0.82992100  0.59603100  0.74412700  1.0
  Al  Al3  1  0.84647800  0.22328600  0.08375800  1.0
  Al  Al4  1  0.16179300  0.77849100  0.89792300  1.0
  In  In5  1  0.16036600  0.40233900  0.27692900  1.0
