# generated using pymatgen
data_Sr2CaIrO6
_symmetry_space_group_name_H-M   'P 1'
_cell_length_a   5.80122600
_cell_length_b   5.93881700
_cell_length_c   8.26270513
_cell_angle_alpha   90.00000000
_cell_angle_beta   89.64890213
_cell_angle_gamma   90.00000000
_symmetry_Int_Tables_number   1
_chemical_formula_structural   Sr2CaIrO6
_chemical_formula_sum   'Sr4 Ca2 Ir2 O12'
_cell_volume   284.66483935
_cell_formula_units_Z   2
loop_
 _symmetry_equiv_pos_site_id
 _symmetry_equiv_pos_as_xyz
  1  'x, y, z'
loop_
 _atom_site_type_symbol
 _atom_site_label
 _atom_site_symmetry_multiplicity
 _atom_site_fract_x
 _atom_site_fract_y
 _atom_site_fract_z
 _atom_site_occupancy
  Sr  Sr0  1  0.98919100  0.04669300  0.25057500  1.0
  Sr  Sr1  1  0.51080900  0.54669300  0.24942500  1.0
  Sr  Sr2  1  0.48919100  0.45330700  0.75057500  1.0
  Sr  Sr3  1  0.01080900  0.95330700  0.74942500  1.0
  Ca  Ca4  1  1.00000000  0.50000000  0.50000000  1.0
  Ca  Ca5  1  0.50000000  1.00000000  0.00000000  1.0
  Ir  Ir6  1  0.50000000  0.00000000  0.50000000  1.0
  Ir  Ir7  1  0.00000000  0.50000000  1.00000000  1.0
  O  O8  1  0.58272000  0.02680500  0.72852200  1.0
  O  O9  1  0.91728000  0.52680500  0.77147800  1.0
  O  O10  1  0.41728000  0.97319500  0.27147800  1.0
  O  O11  1  0.08272000  0.47319500  0.22852200  1.0
  O  O12  1  0.31552700  0.72998800  0.54751400  1.0
  O  O13  1  0.18447300  0.22998800  0.95248600  1.0
  O  O14  1  0.68447300  0.27001200  0.45248600  1.0
  O  O15  1  0.81552700  0.77001200  0.04751400  1.0
  O  O16  1  0.72882800  0.31124400  0.04055100  1.0
  O  O17  1  0.77117200  0.81124400  0.45944900  1.0
  O  O18  1  0.27117200  0.68875600  0.95944900  1.0
  O  O19  1  0.22882800  0.18875600  0.54055100  1.0
