# generated using pymatgen
data_Sr2CrWO6
_symmetry_space_group_name_H-M   'P 1'
_cell_length_a   5.63694678
_cell_length_b   5.63709217
_cell_length_c   5.63707520
_cell_angle_alpha   91.13884929
_cell_angle_beta   119.34394648
_cell_angle_gamma   119.34397249
_symmetry_Int_Tables_number   1
_chemical_formula_structural   Sr2CrWO6
_chemical_formula_sum   'Sr2 Cr1 W1 O6'
_cell_volume   127.88952100
_cell_formula_units_Z   1
loop_
 _symmetry_equiv_pos_site_id
 _symmetry_equiv_pos_as_xyz
  1  'x, y, z'
loop_
 _atom_site_type_symbol
 _atom_site_label
 _atom_site_symmetry_multiplicity
 _atom_site_fract_x
 _atom_site_fract_y
 _atom_site_fract_z
 _atom_site_occupancy
  Cr  Cr4  1  0.99999800  0.50000150  0.49999650  1.0
  O  O8  1  1.00000000  0.25148800  0.74851200  1.0
  O  O10  1  0.00000050  0.74851200  0.25148850  1.0
  O  O12  1  0.50297500  0.25149050  0.25149150  1.0
  O  O14  1  0.49702550  0.74850900  0.74850950  1.0
  O  O16  1  0.99999350  0.75364450  0.75364500  1.0
  O  O18  1  0.00000700  0.24635550  0.24635550  1.0
  Sr  Sr0  1  0.50000050  0.24999900  0.75000150  1.0
  Sr  Sr2  1  0.50000000  0.75000050  0.24999950  1.0
  W  W6  1  0.00000050  1.00000000  0.00000050  1.0
