# generated using pymatgen
data_Sr2C(NCl)2
_symmetry_space_group_name_H-M   'P 1'
_cell_length_a   4.30281000
_cell_length_b   5.31327797
_cell_length_c   7.34312223
_cell_angle_alpha   97.14221305
_cell_angle_beta   90.00000000
_cell_angle_gamma   113.88555366
_symmetry_Int_Tables_number   1
_chemical_formula_structural   Sr2C(NCl)2
_chemical_formula_sum   'Sr2 C1 N2 Cl2'
_cell_volume   152.07511881
_cell_formula_units_Z   1
loop_
 _symmetry_equiv_pos_site_id
 _symmetry_equiv_pos_as_xyz
  1  'x, y, z'
loop_
 _atom_site_type_symbol
 _atom_site_label
 _atom_site_symmetry_multiplicity
 _atom_site_fract_x
 _atom_site_fract_y
 _atom_site_fract_z
 _atom_site_occupancy
  Sr  Sr0  1  0.68265000  0.36530000  0.27195500  1.0
  Sr  Sr1  1  0.31735000  0.63470000  0.72804500  1.0
  C  C2  1  0.00000000  0.00000000  0.50000000  1.0
  N  N3  1  0.11537700  0.23075400  0.44589600  1.0
  N  N4  1  0.88462300  0.76924600  0.55410400  1.0
  Cl  Cl5  1  0.37002200  0.74004400  0.14754500  1.0
  Cl  Cl6  1  0.62997800  0.25995600  0.85245500  1.0
