# generated using pymatgen
data_Sr2FeWO6
_symmetry_space_group_name_H-M   'P 1'
_cell_length_a   5.66744685
_cell_length_b   5.66880591
_cell_length_c   5.70740608
_cell_angle_alpha   119.65719260
_cell_angle_beta   119.67255808
_cell_angle_gamma   90.18491884
_symmetry_Int_Tables_number   1
_chemical_formula_structural   Sr2FeWO6
_chemical_formula_sum   'Sr2 Fe1 W1 O6'
_cell_volume   130.75712049
_cell_formula_units_Z   1
loop_
 _symmetry_equiv_pos_site_id
 _symmetry_equiv_pos_as_xyz
  1  'x, y, z'
loop_
 _atom_site_type_symbol
 _atom_site_label
 _atom_site_symmetry_multiplicity
 _atom_site_fract_x
 _atom_site_fract_y
 _atom_site_fract_z
 _atom_site_occupancy
  Fe  Fe4  1  0.49964700  0.49979400  0.99962950  1.0
  O  O8  1  0.24681550  0.24634750  0.49079400  1.0
  O  O10  1  0.75322700  0.75366700  0.50923650  1.0
  O  O12  1  0.20221050  0.71284150  0.99976650  1.0
  O  O14  1  0.79785150  0.28720650  0.00031900  1.0
  O  O16  1  0.71891000  0.80237300  0.00207800  1.0
  O  O18  1  0.28116100  0.19768100  0.99799900  1.0
  Sr  Sr0  1  0.24943050  0.74900850  0.49838700  1.0
  Sr  Sr2  1  0.75065700  0.25103500  0.50167300  1.0
  W  W6  1  0.00008950  0.00004750  0.00011550  1.0
