# generated using pymatgen
data_Sr2I2O
_symmetry_space_group_name_H-M   'P 1'
_cell_length_a   6.55072600
_cell_length_b   7.67619400
_cell_length_c   8.27326139
_cell_angle_alpha   117.64007954
_cell_angle_beta   113.32195681
_cell_angle_gamma   90.00000001
_symmetry_Int_Tables_number   1
_chemical_formula_structural   Sr2I2O
_chemical_formula_sum   'Sr4 I4 O2'
_cell_volume   329.69191919
_cell_formula_units_Z   2
loop_
 _symmetry_equiv_pos_site_id
 _symmetry_equiv_pos_as_xyz
  1  'x, y, z'
loop_
 _atom_site_type_symbol
 _atom_site_label
 _atom_site_symmetry_multiplicity
 _atom_site_fract_x
 _atom_site_fract_y
 _atom_site_fract_z
 _atom_site_occupancy
  Sr  Sr0  1  0.58843700  0.25895200  0.17687400  1.0
  Sr  Sr1  1  0.41156300  0.74104800  0.82312600  1.0
  Sr  Sr2  1  0.91156400  0.08207900  0.82312700  1.0
  Sr  Sr3  1  0.08843600  0.91792100  0.17687300  1.0
  I  I4  1  0.15059100  0.50281200  0.30118300  1.0
  I  I5  1  0.65059200  0.79837100  0.30118400  1.0
  I  I6  1  0.84940900  0.49718800  0.69881700  1.0
  I  I7  1  0.34940800  0.20162900  0.69881600  1.0
  O  O8  1  0.25000000  0.00000000  0.00000000  1.0
  O  O9  1  0.75000000  0.00000000  0.00000000  1.0
