# generated using pymatgen
data_Sr2LuNbO6
_symmetry_space_group_name_H-M   'P 1'
_cell_length_a   5.85254000
_cell_length_b   5.85405500
_cell_length_c   8.28293560
_cell_angle_alpha   89.85481207
_cell_angle_beta   90.00000000
_cell_angle_gamma   90.00000000
_symmetry_Int_Tables_number   1
_chemical_formula_structural   Sr2LuNbO6
_chemical_formula_sum   'Sr4 Lu2 Nb2 O12'
_cell_volume   283.78149949
_cell_formula_units_Z   2
loop_
 _symmetry_equiv_pos_site_id
 _symmetry_equiv_pos_as_xyz
  1  'x, y, z'
loop_
 _atom_site_type_symbol
 _atom_site_label
 _atom_site_symmetry_multiplicity
 _atom_site_fract_x
 _atom_site_fract_y
 _atom_site_fract_z
 _atom_site_occupancy
  Sr  Sr0  1  0.52558500  0.49707800  0.24727900  1.0
  Sr  Sr1  1  0.97441500  0.99707800  0.74727900  1.0
  Sr  Sr2  1  0.47441500  0.50292200  0.75272100  1.0
  Sr  Sr3  1  0.02558500  0.00292200  0.25272100  1.0
  Lu  Lu4  1  0.00000000  0.50000000  0.50000000  1.0
  Lu  Lu5  1  0.50000000  0.00000000  0.00000000  1.0
  Nb  Nb6  1  0.50000000  0.00000000  0.50000000  1.0
  Nb  Nb7  1  0.00000000  0.50000000  0.00000000  1.0
  O  O8  1  0.78020400  0.19945200  0.46549900  1.0
  O  O9  1  0.71979600  0.69945200  0.96549900  1.0
  O  O10  1  0.21979600  0.80054800  0.53450100  1.0
  O  O11  1  0.28020400  0.30054800  0.03450100  1.0
  O  O12  1  0.79639000  0.22485000  0.03982000  1.0
  O  O13  1  0.70361000  0.72485000  0.53982000  1.0
  O  O14  1  0.20361000  0.77515000  0.96018000  1.0
  O  O15  1  0.29639000  0.27515000  0.46018000  1.0
  O  O16  1  0.98593800  0.57195000  0.23962400  1.0
  O  O17  1  0.51406200  0.07195000  0.73962400  1.0
  O  O18  1  0.01406200  0.42805000  0.76037600  1.0
  O  O19  1  0.48593800  0.92805000  0.26037600  1.0
