# generated using pymatgen
data_Sr2MgMoO6
_symmetry_space_group_name_H-M   'P 1'
_cell_length_a   5.63944800
_cell_length_b   5.66223711
_cell_length_c   5.63944800
_cell_angle_alpha   60.13304873
_cell_angle_beta   90.00000000
_cell_angle_gamma   119.86695126
_symmetry_Int_Tables_number   1
_chemical_formula_structural   Sr2MgMoO6
_chemical_formula_sum   'Sr2 Mg1 Mo1 O6'
_cell_volume   127.84498251
_cell_formula_units_Z   1
loop_
 _symmetry_equiv_pos_site_id
 _symmetry_equiv_pos_as_xyz
  1  'x, y, z'
loop_
 _atom_site_type_symbol
 _atom_site_label
 _atom_site_symmetry_multiplicity
 _atom_site_fract_x
 _atom_site_fract_y
 _atom_site_fract_z
 _atom_site_occupancy
  Sr  Sr0  1  0.75000000  0.50000000  0.75000000  1.0
  Sr  Sr1  1  0.25000000  0.50000000  0.25000000  1.0
  Mg  Mg2  1  0.50000000  0.00000000  0.50000000  1.0
  Mo  Mo3  1  0.00000000  0.00000000  0.00000000  1.0
  O  O4  1  0.75817700  0.51635400  0.24182300  1.0
  O  O5  1  0.24182300  0.48364600  0.75817700  1.0
  O  O6  1  0.79117400  0.00000000  0.72617300  1.0
  O  O7  1  0.20882600  0.00000000  0.27382700  1.0
  O  O8  1  0.72617300  0.99999900  0.20882700  1.0
  O  O9  1  0.27382700  0.00000100  0.79117300  1.0
