# generated using pymatgen
data_Sr2NiIrO6
_symmetry_space_group_name_H-M   'P 1'
_cell_length_a   5.60808200
_cell_length_b   5.64343295
_cell_length_c   5.60808200
_cell_angle_alpha   119.79300111
_cell_angle_beta   89.99999999
_cell_angle_gamma   119.79300112
_symmetry_Int_Tables_number   1
_chemical_formula_structural   Sr2NiIrO6
_chemical_formula_sum   'Sr2 Ni1 Ir1 O6'
_cell_volume   126.28513246
_cell_formula_units_Z   1
loop_
 _symmetry_equiv_pos_site_id
 _symmetry_equiv_pos_as_xyz
  1  'x, y, z'
loop_
 _atom_site_type_symbol
 _atom_site_label
 _atom_site_symmetry_multiplicity
 _atom_site_fract_x
 _atom_site_fract_y
 _atom_site_fract_z
 _atom_site_occupancy
  Sr  Sr0  1  0.75000000  0.50000000  0.25000000  1.0
  Sr  Sr1  1  0.25000000  0.50000000  0.75000000  1.0
  Ni  Ni2  1  0.00000000  0.00000000  0.00000000  1.0
  Ir  Ir3  1  0.50000000  0.00000000  0.50000000  1.0
  O  O4  1  0.74353400  0.48706800  0.74353400  1.0
  O  O5  1  0.25646600  0.51293200  0.25646600  1.0
  O  O6  1  0.77722000  0.00000100  0.28961200  1.0
  O  O7  1  0.22278000  0.99999900  0.71038800  1.0
  O  O8  1  0.71038900  0.00000000  0.77722000  1.0
  O  O9  1  0.28961100  0.00000000  0.22278000  1.0
