# generated using pymatgen
data_Sr2TaMnO6
_symmetry_space_group_name_H-M   'P 1'
_cell_length_a   5.66106255
_cell_length_b   5.70558632
_cell_length_c   9.82678934
_cell_angle_alpha   73.47743738
_cell_angle_beta   73.37386418
_cell_angle_gamma   60.34464335
_symmetry_Int_Tables_number   1
_chemical_formula_structural   Sr2TaMnO6
_chemical_formula_sum   'Sr4 Ta2 Mn2 O12'
_cell_volume   260.37943925
_cell_formula_units_Z   2
loop_
 _symmetry_equiv_pos_site_id
 _symmetry_equiv_pos_as_xyz
  1  'x, y, z'
loop_
 _atom_site_type_symbol
 _atom_site_label
 _atom_site_symmetry_multiplicity
 _atom_site_fract_x
 _atom_site_fract_y
 _atom_site_fract_z
 _atom_site_occupancy
  Sr  Sr0  1  0.37736800  0.36969500  0.87566100  1.0
  Sr  Sr1  1  0.87299300  0.87873500  0.37516400  1.0
  Sr  Sr2  1  0.12273400  0.13043100  0.62415500  1.0
  Sr  Sr3  1  0.62697900  0.62125400  0.12493400  1.0
  Ta  Ta4  1  0.00897700  0.98210400  0.00010100  1.0
  Ta  Ta5  1  0.49097800  0.51799800  0.49988900  1.0
  Mn  Mn6  1  0.25002500  0.24992600  0.24999100  1.0
  Mn  Mn7  1  0.74995200  0.74989700  0.75022900  1.0
  O  O8  1  0.10699300  0.65652300  0.62073300  1.0
  O  O9  1  0.64753800  0.09135100  0.12668400  1.0
  O  O10  1  0.60015400  0.17043600  0.62921400  1.0
  O  O11  1  0.14653100  0.58994000  0.11754700  1.0
  O  O12  1  0.61554600  0.65687000  0.62068000  1.0
  O  O13  1  0.13464600  0.09229800  0.12714100  1.0
  O  O14  1  0.39304700  0.84352800  0.87933600  1.0
  O  O15  1  0.85237900  0.40867500  0.37324000  1.0
  O  O16  1  0.89984900  0.32954300  0.87074200  1.0
  O  O17  1  0.35358500  0.90994800  0.38236300  1.0
  O  O18  1  0.88451000  0.84307900  0.87934000  1.0
  O  O19  1  0.36521300  0.40776800  0.37285800  1.0
