# generated using pymatgen
data_Sr2TaGaO6
_symmetry_space_group_name_H-M   'P 1'
_cell_length_a   5.61979800
_cell_length_b   5.64607394
_cell_length_c   5.61979800
_cell_angle_alpha   119.84617115
_cell_angle_beta   90.00000000
_cell_angle_gamma   119.84617115
_symmetry_Int_Tables_number   1
_chemical_formula_structural   Sr2TaGaO6
_chemical_formula_sum   'Sr2 Ta1 Ga1 O6'
_cell_volume   126.67184744
_cell_formula_units_Z   1
loop_
 _symmetry_equiv_pos_site_id
 _symmetry_equiv_pos_as_xyz
  1  'x, y, z'
loop_
 _atom_site_type_symbol
 _atom_site_label
 _atom_site_symmetry_multiplicity
 _atom_site_fract_x
 _atom_site_fract_y
 _atom_site_fract_z
 _atom_site_occupancy
  Sr  Sr0  1  0.25000000  0.50000000  0.75000000  1.0
  Sr  Sr1  1  0.75000000  0.50000000  0.25000000  1.0
  Ta  Ta2  1  0.50000000  0.00000000  0.50000000  1.0
  Ga  Ga3  1  0.00000000  0.00000000  0.00000000  1.0
  O  O4  1  0.21862600  0.99999900  0.71740000  1.0
  O  O5  1  0.28259900  0.00000000  0.21862600  1.0
  O  O6  1  0.71740100  0.00000000  0.78137400  1.0
  O  O7  1  0.78137400  0.00000100  0.28260000  1.0
  O  O8  1  0.74913900  0.49827800  0.74913900  1.0
  O  O9  1  0.25086100  0.50172200  0.25086100  1.0
