# generated using pymatgen
data_Sr2U2O7
_symmetry_space_group_name_H-M   'P 1'
_cell_length_a   4.06372200
_cell_length_b   6.71427100
_cell_length_c   6.94042000
_cell_angle_alpha   110.00570659
_cell_angle_beta   90.00000000
_cell_angle_gamma   90.00000000
_symmetry_Int_Tables_number   1
_chemical_formula_structural   Sr2U2O7
_chemical_formula_sum   'Sr2 U2 O7'
_cell_volume   177.94208675
_cell_formula_units_Z   1
loop_
 _symmetry_equiv_pos_site_id
 _symmetry_equiv_pos_as_xyz
  1  'x, y, z'
loop_
 _atom_site_type_symbol
 _atom_site_label
 _atom_site_symmetry_multiplicity
 _atom_site_fract_x
 _atom_site_fract_y
 _atom_site_fract_z
 _atom_site_occupancy
  Sr  Sr0  1  1.00000000  0.48793600  0.49759700  1.0
  Sr  Sr1  1  0.50000000  0.49534900  0.99504100  1.0
  U  U2  1  0.00000000  0.99615400  0.01132700  1.0
  U  U3  1  0.50000000  0.00496900  0.48478200  1.0
  O  O4  1  0.50000000  0.68146100  0.39227000  1.0
  O  O5  1  0.00000000  0.67830500  0.88932800  1.0
  O  O6  1  0.50000000  0.33036400  0.59823300  1.0
  O  O7  1  1.00000000  0.31482200  0.11065400  1.0
  O  O8  1  0.50000000  0.95366800  0.14962300  1.0
  O  O9  1  1.00000000  0.04610900  0.40463400  1.0
  O  O10  1  0.50000000  0.03086100  0.80651100  1.0
