# generated using pymatgen
data_Sr3Ca
_symmetry_space_group_name_H-M   'P 1'
_cell_length_a   6.84737000
_cell_length_b   8.34470600
_cell_length_c   8.34470653
_cell_angle_alpha   60.00000212
_cell_angle_beta   90.00000000
_cell_angle_gamma   90.00000000
_symmetry_Int_Tables_number   1
_chemical_formula_structural   Sr3Ca
_chemical_formula_sum   'Sr6 Ca2'
_cell_volume   412.93010306
_cell_formula_units_Z   2
loop_
 _symmetry_equiv_pos_site_id
 _symmetry_equiv_pos_as_xyz
  1  'x, y, z'
loop_
 _atom_site_type_symbol
 _atom_site_label
 _atom_site_symmetry_multiplicity
 _atom_site_fract_x
 _atom_site_fract_y
 _atom_site_fract_z
 _atom_site_occupancy
  Sr  Sr0  1  0.75000000  0.66248600  0.16875700  1.0
  Sr  Sr1  1  0.75000000  0.16875700  0.16875700  1.0
  Sr  Sr2  1  0.75000000  0.16875700  0.66248600  1.0
  Sr  Sr3  1  0.25000000  0.33751400  0.83124300  1.0
  Sr  Sr4  1  0.25000000  0.83124300  0.83124300  1.0
  Sr  Sr5  1  0.25000000  0.83124300  0.33751400  1.0
  Ca  Ca6  1  0.25000000  0.33333333  0.33333333  1.0
  Ca  Ca7  1  0.75000000  0.66666667  0.66666667  1.0
