# generated using pymatgen
data_Sr3Eu
_symmetry_space_group_name_H-M   'P 1'
_cell_length_a   6.93182100
_cell_length_b   8.40875800
_cell_length_c   8.40875796
_cell_angle_alpha   120.00000015
_cell_angle_beta   90.00000000
_cell_angle_gamma   90.00000000
_symmetry_Int_Tables_number   1
_chemical_formula_structural   Sr3Eu
_chemical_formula_sum   'Sr6 Eu2'
_cell_volume   424.46479520
_cell_formula_units_Z   2
loop_
 _symmetry_equiv_pos_site_id
 _symmetry_equiv_pos_as_xyz
  1  'x, y, z'
loop_
 _atom_site_type_symbol
 _atom_site_label
 _atom_site_symmetry_multiplicity
 _atom_site_fract_x
 _atom_site_fract_y
 _atom_site_fract_z
 _atom_site_occupancy
  Sr  Sr0  1  0.75000000  0.83210900  0.16789000  1.0
  Sr  Sr1  1  0.75000000  0.33578100  0.16789000  1.0
  Sr  Sr2  1  0.75000000  0.83210900  0.66421800  1.0
  Sr  Sr3  1  0.25000000  0.16789100  0.83211000  1.0
  Sr  Sr4  1  0.25000000  0.66421900  0.83211000  1.0
  Sr  Sr5  1  0.25000000  0.16789100  0.33578200  1.0
  Eu  Eu6  1  0.25000000  0.66666667  0.33333333  1.0
  Eu  Eu7  1  0.75000000  0.33333333  0.66666667  1.0
