# generated using pymatgen
data_Sr8Cr3N8
_symmetry_space_group_name_H-M   'P 1'
_cell_length_a   5.34588653
_cell_length_b   7.61048089
_cell_length_c   9.91809874
_cell_angle_alpha   105.97977851
_cell_angle_beta   105.63461200
_cell_angle_gamma   89.99999686
_symmetry_Int_Tables_number   1
_chemical_formula_structural   Sr8Cr3N8
_chemical_formula_sum   'Sr8 Cr3 N8'
_cell_volume   372.36851590
_cell_formula_units_Z   1
loop_
 _symmetry_equiv_pos_site_id
 _symmetry_equiv_pos_as_xyz
  1  'x, y, z'
loop_
 _atom_site_type_symbol
 _atom_site_label
 _atom_site_symmetry_multiplicity
 _atom_site_fract_x
 _atom_site_fract_y
 _atom_site_fract_z
 _atom_site_occupancy
  Sr  Sr0  1  0.02962900  0.27003000  0.05925900  1.0
  Sr  Sr1  1  0.97037100  0.72997000  0.94074100  1.0
  Sr  Sr2  1  0.33346100  0.53087900  0.66692100  1.0
  Sr  Sr3  1  0.66653900  0.46912100  0.33307900  1.0
  Sr  Sr4  1  0.40259500  0.04760100  0.80519200  1.0
  Sr  Sr5  1  0.59740500  0.95239900  0.19480800  1.0
  Sr  Sr6  1  0.80148300  0.19856300  0.60296600  1.0
  Sr  Sr7  1  0.19851700  0.80143700  0.39703400  1.0
  Cr  Cr8  1  0.50000000  0.50000000  0.00000000  1.0
  Cr  Cr9  1  0.18696200  0.20318800  0.37392400  1.0
  Cr  Cr10  1  0.81303800  0.79681200  0.62607600  1.0
  N  N11  1  0.10778500  0.01569200  0.21557200  1.0
  N  N12  1  0.89221500  0.98430800  0.78442800  1.0
  N  N13  1  0.17982900  0.42414200  0.35965800  1.0
  N  N14  1  0.82017100  0.57585800  0.64034200  1.0
  N  N15  1  0.27294700  0.16756600  0.54589500  1.0
  N  N16  1  0.72705300  0.83243400  0.45410500  1.0
  N  N17  1  0.52553900  0.29117200  0.05107700  1.0
  N  N18  1  0.47446100  0.70882800  0.94892300  1.0
