# generated using pymatgen
data_Sr9(MnN4)2
_symmetry_space_group_name_H-M   'P 1'
_cell_length_a   5.20799461
_cell_length_b   8.41547674
_cell_length_c   10.50277113
_cell_angle_alpha   111.28143312
_cell_angle_beta   104.35531233
_cell_angle_gamma   89.99999528
_symmetry_Int_Tables_number   1
_chemical_formula_structural   Sr9(MnN4)2
_chemical_formula_sum   'Sr9 Mn2 N8'
_cell_volume   413.46154257
_cell_formula_units_Z   1
loop_
 _symmetry_equiv_pos_site_id
 _symmetry_equiv_pos_as_xyz
  1  'x, y, z'
loop_
 _atom_site_type_symbol
 _atom_site_label
 _atom_site_symmetry_multiplicity
 _atom_site_fract_x
 _atom_site_fract_y
 _atom_site_fract_z
 _atom_site_occupancy
  Sr  Sr0  1  0.50000000  0.50000000  1.00000000  1.0
  Sr  Sr1  1  0.04159100  0.24417700  0.08318200  1.0
  Sr  Sr2  1  0.95840900  0.75582300  0.91681800  1.0
  Sr  Sr3  1  0.32561100  0.54549900  0.65122300  1.0
  Sr  Sr4  1  0.67438900  0.45450100  0.34877700  1.0
  Sr  Sr5  1  0.41427900  0.01060300  0.82855700  1.0
  Sr  Sr6  1  0.58572100  0.98939700  0.17144300  1.0
  Sr  Sr7  1  0.19668900  0.83006800  0.39337900  1.0
  Sr  Sr8  1  0.80331100  0.16993200  0.60662100  1.0
  Mn  Mn9  1  0.19033000  0.19789100  0.38066000  1.0
  Mn  Mn10  1  0.80967000  0.80210900  0.61934000  1.0
  N  N11  1  0.11328300  0.01743100  0.22656500  1.0
  N  N12  1  0.88671700  0.98256900  0.77343500  1.0
  N  N13  1  0.18451900  0.39492000  0.36903700  1.0
  N  N14  1  0.81548100  0.60508000  0.63096300  1.0
  N  N15  1  0.27115500  0.17648900  0.54230800  1.0
  N  N16  1  0.72884500  0.82351100  0.45769200  1.0
  N  N17  1  0.46271200  0.75653800  0.92542400  1.0
  N  N18  1  0.53728800  0.24346200  0.07457600  1.0
