# generated using pymatgen
data_SrCa3
_symmetry_space_group_name_H-M   'P 1'
_cell_length_a   6.57879000
_cell_length_b   7.97294000
_cell_length_c   7.97294036
_cell_angle_alpha   60.00000150
_cell_angle_beta   90.00000000
_cell_angle_gamma   90.00000000
_symmetry_Int_Tables_number   1
_chemical_formula_structural   SrCa3
_chemical_formula_sum   'Sr2 Ca6'
_cell_volume   362.17100069
_cell_formula_units_Z   2
loop_
 _symmetry_equiv_pos_site_id
 _symmetry_equiv_pos_as_xyz
  1  'x, y, z'
loop_
 _atom_site_type_symbol
 _atom_site_label
 _atom_site_symmetry_multiplicity
 _atom_site_fract_x
 _atom_site_fract_y
 _atom_site_fract_z
 _atom_site_occupancy
  Sr  Sr0  1  0.25000000  0.33333333  0.33333333  1.0
  Sr  Sr1  1  0.75000000  0.66666667  0.66666667  1.0
  Ca  Ca2  1  0.75000000  0.67145300  0.16427300  1.0
  Ca  Ca3  1  0.75000000  0.16427400  0.16427300  1.0
  Ca  Ca4  1  0.75000000  0.16427400  0.67145200  1.0
  Ca  Ca5  1  0.25000000  0.32854700  0.83572700  1.0
  Ca  Ca6  1  0.25000000  0.83572600  0.83572700  1.0
  Ca  Ca7  1  0.25000000  0.83572600  0.32854800  1.0
