# generated using pymatgen
data_SrCa3V4O12
_symmetry_space_group_name_H-M   'P 1'
_cell_length_a   5.38977883
_cell_length_b   5.41854789
_cell_length_c   7.84715900
_cell_angle_alpha   89.99835073
_cell_angle_beta   89.99934477
_cell_angle_gamma   89.93528702
_symmetry_Int_Tables_number   1
_chemical_formula_structural   SrCa3V4O12
_chemical_formula_sum   'Sr1 Ca3 V4 O12'
_cell_volume   229.17436440
_cell_formula_units_Z   1
loop_
 _symmetry_equiv_pos_site_id
 _symmetry_equiv_pos_as_xyz
  1  'x, y, z'
loop_
 _atom_site_type_symbol
 _atom_site_label
 _atom_site_symmetry_multiplicity
 _atom_site_fract_x
 _atom_site_fract_y
 _atom_site_fract_z
 _atom_site_occupancy
  Sr  Sr0  1  0.48064500  0.50334400  0.24998500  1.0
  Ca  Ca1  1  0.97079500  0.00153900  0.25002600  1.0
  Ca  Ca2  1  0.53017800  0.49844800  0.75002200  1.0
  Ca  Ca3  1  0.02771200  0.99685600  0.74998200  1.0
  V  V4  1  0.00095600  0.49976700  0.50299700  1.0
  V  V5  1  0.49980000  0.99813800  0.50254100  1.0
  V  V6  1  0.00090700  0.49975200  0.99698200  1.0
  V  V7  1  0.49985100  0.99813800  0.99749100  1.0
  O  O8  1  0.99546800  0.43580500  0.25000200  1.0
  O  O9  1  0.52781500  0.04305500  0.24998300  1.0
  O  O10  1  0.99878000  0.56432700  0.74999100  1.0
  O  O11  1  0.47355100  0.93559600  0.75000800  1.0
  O  O12  1  0.72191400  0.70626600  0.01601400  1.0
  O  O13  1  0.72192600  0.70627000  0.48388200  1.0
  O  O14  1  0.21588400  0.80239400  0.46608100  1.0
  O  O15  1  0.21589600  0.80236100  0.03400400  1.0
  O  O16  1  0.28093800  0.29926900  0.52963100  1.0
  O  O17  1  0.28098800  0.29925200  0.97050700  1.0
  O  O18  1  0.77799900  0.20471100  0.96257000  1.0
  O  O19  1  0.77799500  0.20471100  0.53730000  1.0
