# generated using pymatgen
data_SrCaMnGaO5
_symmetry_space_group_name_H-M   'P 1'
_cell_length_a   5.45568823
_cell_length_b   5.67301705
_cell_length_c   8.66458783
_cell_angle_alpha   108.69247466
_cell_angle_beta   108.32012940
_cell_angle_gamma   90.02379431
_symmetry_Int_Tables_number   1
_chemical_formula_structural   SrCaMnGaO5
_chemical_formula_sum   'Sr2 Ca2 Mn2 Ga2 O10'
_cell_volume   239.61966553
_cell_formula_units_Z   2
loop_
 _symmetry_equiv_pos_site_id
 _symmetry_equiv_pos_as_xyz
  1  'x, y, z'
loop_
 _atom_site_type_symbol
 _atom_site_label
 _atom_site_symmetry_multiplicity
 _atom_site_fract_x
 _atom_site_fract_y
 _atom_site_fract_z
 _atom_site_occupancy
  Sr  Sr0  1  0.11722000  0.59248400  0.22885000  1.0
  Sr  Sr1  1  0.88815200  0.40715500  0.77112400  1.0
  Ca  Ca2  1  0.40598700  0.86690700  0.78706400  1.0
  Ca  Ca3  1  0.61897500  0.13332900  0.21278900  1.0
  Mn  Mn4  1  0.49769700  0.50026700  0.00024100  1.0
  Mn  Mn5  1  0.99803400  0.99953500  0.00028400  1.0
  Ga  Ga6  1  0.78729400  0.82061600  0.50050400  1.0
  Ga  Ga7  1  0.28687700  0.17954600  0.49946000  1.0
  O  O8  1  0.24087500  0.22960500  0.98096400  1.0
  O  O9  1  0.26585000  0.76254000  0.01928600  1.0
  O  O10  1  0.75822900  0.76394600  0.02040100  1.0
  O  O11  1  0.73180400  0.24357200  0.97944600  1.0
  O  O12  1  0.62291500  0.11130100  0.47943800  1.0
  O  O13  1  0.14330200  0.88866800  0.52034700  1.0
  O  O14  1  0.62959600  0.56971200  0.29182400  1.0
  O  O15  1  0.33725800  0.43023500  0.70803800  1.0
  O  O16  1  0.80630300  0.80835400  0.71358500  1.0
  O  O17  1  0.09363200  0.19222700  0.28635500  1.0
