# generated using pymatgen
data_SrCaV2O6
_symmetry_space_group_name_H-M   'P 1'
_cell_length_a   5.41585033
_cell_length_b   5.46790004
_cell_length_c   7.89245141
_cell_angle_alpha   89.99950018
_cell_angle_beta   89.96303242
_cell_angle_gamma   89.98550174
_symmetry_Int_Tables_number   1
_chemical_formula_structural   SrCaV2O6
_chemical_formula_sum   'Sr2 Ca2 V4 O12'
_cell_volume   233.72169805
_cell_formula_units_Z   2
loop_
 _symmetry_equiv_pos_site_id
 _symmetry_equiv_pos_as_xyz
  1  'x, y, z'
loop_
 _atom_site_type_symbol
 _atom_site_label
 _atom_site_symmetry_multiplicity
 _atom_site_fract_x
 _atom_site_fract_y
 _atom_site_fract_z
 _atom_site_occupancy
  Sr  Sr0  1  0.98471900  0.50303000  0.74999400  1.0
  Sr  Sr1  1  0.48478600  0.99703200  0.74999000  1.0
  Ca  Ca2  1  0.02216000  0.50227000  0.24999100  1.0
  Ca  Ca3  1  0.52225800  0.99767700  0.25002900  1.0
  V  V4  1  0.00030200  0.99891400  0.49538100  1.0
  V  V5  1  0.50031000  0.50123200  0.49530500  1.0
  V  V6  1  0.50019300  0.50109700  0.00463200  1.0
  V  V7  1  0.00028400  0.99878700  0.00472900  1.0
  O  O8  1  0.00259200  0.04504900  0.75000700  1.0
  O  O9  1  0.50270800  0.45502200  0.75001400  1.0
  O  O10  1  0.99050900  0.93621200  0.25006200  1.0
  O  O11  1  0.49036700  0.56372900  0.24992900  1.0
  O  O12  1  0.23055700  0.71416100  0.98048100  1.0
  O  O13  1  0.73038900  0.78595900  0.51925400  1.0
  O  O14  1  0.23042400  0.71415600  0.51943200  1.0
  O  O15  1  0.73062000  0.78581300  0.98043000  1.0
  O  O16  1  0.76936800  0.28686700  0.46587200  1.0
  O  O17  1  0.26906900  0.21314800  0.03423900  1.0
  O  O18  1  0.76908900  0.28672500  0.03426700  1.0
  O  O19  1  0.26929500  0.21312300  0.46596300  1.0
