# generated using pymatgen
data_SrLaVFeO6
_symmetry_space_group_name_H-M   'P 1'
_cell_length_a   5.53039647
_cell_length_b   5.56110218
_cell_length_c   5.56229515
_cell_angle_alpha   119.93313825
_cell_angle_beta   90.20163036
_cell_angle_gamma   119.25122278
_symmetry_Int_Tables_number   1
_chemical_formula_structural   SrLaVFeO6
_chemical_formula_sum   'Sr1 La1 V1 Fe1 O6'
_cell_volume   122.22903329
_cell_formula_units_Z   1
loop_
 _symmetry_equiv_pos_site_id
 _symmetry_equiv_pos_as_xyz
  1  'x, y, z'
loop_
 _atom_site_type_symbol
 _atom_site_label
 _atom_site_symmetry_multiplicity
 _atom_site_fract_x
 _atom_site_fract_y
 _atom_site_fract_z
 _atom_site_occupancy
  Fe  Fe6  1  0.00180750  0.00038450  0.99976350  1.0
  La  La2  1  0.75906450  0.50554550  0.24737550  1.0
  O  O8  1  0.20089450  0.96828100  0.69120500  1.0
  O  O10  1  0.68765950  0.94705150  0.74727450  1.0
  O  O12  1  0.22226200  0.50320650  0.21384750  1.0
  O  O14  1  0.78387000  0.01042950  0.29513450  1.0
  O  O16  1  0.32935400  0.07274750  0.25382250  1.0
  O  O18  1  0.76591050  0.49694100  0.80187400  1.0
  Sr  Sr0  1  0.24851300  0.49668250  0.74951650  1.0
  V  V4  1  0.50066550  0.99872800  0.50018500  1.0
