# generated using pymatgen
data_SrLaMnMoO6
_symmetry_space_group_name_H-M   'P 1'
_cell_length_a   5.69560728
_cell_length_b   5.83798600
_cell_length_c   8.16240780
_cell_angle_alpha   89.99995991
_cell_angle_beta   90.54150888
_cell_angle_gamma   89.99970200
_symmetry_Int_Tables_number   1
_chemical_formula_structural   SrLaMnMoO6
_chemical_formula_sum   'Sr2 La2 Mn2 Mo2 O12'
_cell_volume   271.39508461
_cell_formula_units_Z   2
loop_
 _symmetry_equiv_pos_site_id
 _symmetry_equiv_pos_as_xyz
  1  'x, y, z'
loop_
 _atom_site_type_symbol
 _atom_site_label
 _atom_site_symmetry_multiplicity
 _atom_site_fract_x
 _atom_site_fract_y
 _atom_site_fract_z
 _atom_site_occupancy
  Sr  Sr0  1  0.99340300  0.96071000  0.75295900  1.0
  Sr  Sr1  1  0.49341900  0.53929400  0.25296000  1.0
  La  La2  1  0.50831300  0.44926500  0.75129800  1.0
  La  La3  1  0.00829400  0.05074300  0.25129800  1.0
  Mn  Mn4  1  0.00138300  0.50369300  0.50166300  1.0
  Mn  Mn5  1  0.50125000  0.99628800  0.00162300  1.0
  Mo  Mo6  1  0.00019700  0.50379800  0.00086600  1.0
  Mo  Mo7  1  0.50021000  0.99620100  0.50086700  1.0
  O  O8  1  0.10132500  0.52875700  0.75920400  1.0
  O  O9  1  0.60131700  0.97124700  0.25920300  1.0
  O  O10  1  0.22312300  0.80890500  0.45434300  1.0
  O  O11  1  0.72312200  0.69110400  0.95434600  1.0
  O  O12  1  0.18991400  0.79336800  0.05366900  1.0
  O  O13  1  0.68992500  0.70663000  0.55366400  1.0
  O  O14  1  0.29116400  0.27180300  0.44846200  1.0
  O  O15  1  0.79115300  0.22819800  0.94847000  1.0
  O  O16  1  0.26954600  0.30506500  0.03697400  1.0
  O  O17  1  0.76954600  0.19493500  0.53696800  1.0
  O  O18  1  0.42169600  0.03612100  0.74057900  1.0
  O  O19  1  0.92170100  0.46387600  0.24057900  1.0
