# generated using pymatgen
data_SrLa3(NiO4)2
_symmetry_space_group_name_H-M   'P 1'
_cell_length_a   5.44067400
_cell_length_b   5.45597602
_cell_length_c   6.91370871
_cell_angle_alpha   89.99120802
_cell_angle_beta   66.83092305
_cell_angle_gamma   89.99945321
_symmetry_Int_Tables_number   1
_chemical_formula_structural   SrLa3(NiO4)2
_chemical_formula_sum   'Sr1 La3 Ni2 O8'
_cell_volume   188.67574743
_cell_formula_units_Z   1
loop_
 _symmetry_equiv_pos_site_id
 _symmetry_equiv_pos_as_xyz
  1  'x, y, z'
loop_
 _atom_site_type_symbol
 _atom_site_label
 _atom_site_symmetry_multiplicity
 _atom_site_fract_x
 _atom_site_fract_y
 _atom_site_fract_z
 _atom_site_occupancy
  Sr  Sr0  1  0.35831400  0.00000400  0.28336600  1.0
  La  La1  1  0.86250100  0.49999100  0.27512000  1.0
  La  La2  1  0.14084800  0.50001400  0.71838500  1.0
  La  La3  1  0.63769100  0.00000100  0.72461600  1.0
  Ni  Ni4  1  0.49536700  0.50004700  0.00917800  1.0
  Ni  Ni5  1  0.99712300  0.99996200  0.00570300  1.0
  O  O6  1  0.68005400  0.50005000  0.63986000  1.0
  O  O7  1  0.16470700  0.00001700  0.67055500  1.0
  O  O8  1  0.82519400  0.99996300  0.34966200  1.0
  O  O9  1  0.32432200  0.49991600  0.35140200  1.0
  O  O10  1  0.75129400  0.74201700  0.99304700  1.0
  O  O11  1  0.25566200  0.25798600  0.99302400  1.0
  O  O12  1  0.25558800  0.74199700  0.99306900  1.0
  O  O13  1  0.75133600  0.25803600  0.99301400  1.0
