# generated using pymatgen
data_SrLaVO4
_symmetry_space_group_name_H-M   'P 1'
_cell_length_a   3.92284495
_cell_length_b   3.94938333
_cell_length_c   6.91890201
_cell_angle_alpha   73.42453511
_cell_angle_beta   73.60766079
_cell_angle_gamma   89.96260639
_symmetry_Int_Tables_number   1
_chemical_formula_structural   SrLaVO4
_chemical_formula_sum   'Sr1 La1 V1 O4'
_cell_volume   98.19027645
_cell_formula_units_Z   1
loop_
 _symmetry_equiv_pos_site_id
 _symmetry_equiv_pos_as_xyz
  1  'x, y, z'
loop_
 _atom_site_type_symbol
 _atom_site_label
 _atom_site_symmetry_multiplicity
 _atom_site_fract_x
 _atom_site_fract_y
 _atom_site_fract_z
 _atom_site_occupancy
  La  La2  1  0.64402600  0.64394550  0.71290300  1.0
  O  O6  1  0.16607600  0.16591250  0.66792200  1.0
  O  O8  1  0.82579100  0.82577950  0.34827000  1.0
  O  O10  1  0.00680400  0.50678600  0.98640400  1.0
  O  O12  1  0.50390100  0.00399300  0.99233000  1.0
  Sr  Sr0  1  0.35566950  0.35593900  0.28740650  1.0
  V  V4  1  0.99773400  0.99764500  0.00476500  1.0
