# generated using pymatgen
data_SrLiAlSb2
_symmetry_space_group_name_H-M   'P 1'
_cell_length_a   4.60020600
_cell_length_b   4.60020578
_cell_length_c   7.83127800
_cell_angle_alpha   90.00000000
_cell_angle_beta   90.00000000
_cell_angle_gamma   120.00000161
_symmetry_Int_Tables_number   1
_chemical_formula_structural   SrLiAlSb2
_chemical_formula_sum   'Sr1 Li1 Al1 Sb2'
_cell_volume   143.52177787
_cell_formula_units_Z   1
loop_
 _symmetry_equiv_pos_site_id
 _symmetry_equiv_pos_as_xyz
  1  'x, y, z'
loop_
 _atom_site_type_symbol
 _atom_site_label
 _atom_site_symmetry_multiplicity
 _atom_site_fract_x
 _atom_site_fract_y
 _atom_site_fract_z
 _atom_site_occupancy
  Sr  Sr0  1  0.66666667  0.33333333  0.97377100  1.0
  Li  Li1  1  0.33333333  0.66666667  0.63333900  1.0
  Al  Al2  1  0.00000000  0.00000000  0.39668300  1.0
  Sb  Sb3  1  0.00000000  0.00000000  0.73308700  1.0
  Sb  Sb4  1  0.33333333  0.66666667  0.26312000  1.0
