# generated using pymatgen
data_SrMg3GeN4
_symmetry_space_group_name_H-M   'P 1'
_cell_length_a   3.37990700
_cell_length_b   6.21395630
_cell_length_c   6.24345082
_cell_angle_alpha   85.59351829
_cell_angle_beta   74.29548699
_cell_angle_gamma   74.21901620
_symmetry_Int_Tables_number   1
_chemical_formula_structural   SrMg3GeN4
_chemical_formula_sum   'Sr1 Mg3 Ge1 N4'
_cell_volume   121.47499409
_cell_formula_units_Z   1
loop_
 _symmetry_equiv_pos_site_id
 _symmetry_equiv_pos_as_xyz
  1  'x, y, z'
loop_
 _atom_site_type_symbol
 _atom_site_label
 _atom_site_symmetry_multiplicity
 _atom_site_fract_x
 _atom_site_fract_y
 _atom_site_fract_z
 _atom_site_occupancy
  Sr  Sr0  1  0.99209000  0.01852800  0.99729200  1.0
  Mg  Mg1  1  0.62789800  0.19551300  0.54869100  1.0
  Mg  Mg2  1  0.82141600  0.53685200  0.82031600  1.0
  Mg  Mg3  1  0.18063000  0.45141400  0.18732500  1.0
  Ge  Ge4  1  0.36422900  0.83615500  0.43538700  1.0
  N  N5  1  0.25398500  0.14195000  0.35008000  1.0
  N  N6  1  0.77898700  0.82384700  0.61817800  1.0
  N  N7  1  0.57756800  0.65564700  0.18921700  1.0
  N  N8  1  0.40319600  0.34009400  0.85351300  1.0
