# generated using pymatgen
data_SrMgF4
_symmetry_space_group_name_H-M   'P 1'
_cell_length_a   3.99356200
_cell_length_b   5.68747000
_cell_length_c   7.57076443
_cell_angle_alpha   90.00000000
_cell_angle_beta   105.29262713
_cell_angle_gamma   90.00000000
_symmetry_Int_Tables_number   1
_chemical_formula_structural   SrMgF4
_chemical_formula_sum   'Sr2 Mg2 F8'
_cell_volume   165.86801731
_cell_formula_units_Z   2
loop_
 _symmetry_equiv_pos_site_id
 _symmetry_equiv_pos_as_xyz
  1  'x, y, z'
loop_
 _atom_site_type_symbol
 _atom_site_label
 _atom_site_symmetry_multiplicity
 _atom_site_fract_x
 _atom_site_fract_y
 _atom_site_fract_z
 _atom_site_occupancy
  Sr  Sr0  1  0.34254500  0.04460200  0.68509000  1.0
  Sr  Sr1  1  0.65745500  0.54460200  0.31491000  1.0
  Mg  Mg2  1  0.91550700  0.59536000  0.83101400  1.0
  Mg  Mg3  1  0.08449300  0.09536000  0.16898600  1.0
  F  F4  1  0.83827400  0.31015500  0.67654800  1.0
  F  F5  1  0.16172600  0.81015500  0.32345200  1.0
  F  F6  1  0.03426000  0.43051800  0.06852000  1.0
  F  F7  1  0.96574000  0.93051800  0.93148000  1.0
  F  F8  1  0.79801700  0.78906700  0.59603400  1.0
  F  F9  1  0.20198300  0.28906700  0.40396600  1.0
  F  F10  1  0.41611600  0.61327900  0.83223200  1.0
  F  F11  1  0.58388400  0.11327900  0.16776800  1.0
