# generated using pymatgen
data_SrNd2O4
_symmetry_space_group_name_H-M   'P 1'
_cell_length_a   7.20390489
_cell_length_b   7.20390489
_cell_length_c   7.20390489
_cell_angle_alpha   60.00000000
_cell_angle_beta   60.00000000
_cell_angle_gamma   60.00000000
_symmetry_Int_Tables_number   1
_chemical_formula_structural   SrNd2O4
_chemical_formula_sum   'Sr2 Nd4 O8'
_cell_volume   264.35584261
_cell_formula_units_Z   2
loop_
 _symmetry_equiv_pos_site_id
 _symmetry_equiv_pos_as_xyz
  1  'x, y, z'
loop_
 _atom_site_type_symbol
 _atom_site_label
 _atom_site_symmetry_multiplicity
 _atom_site_fract_x
 _atom_site_fract_y
 _atom_site_fract_z
 _atom_site_occupancy
  Sr  Sr0  1  0.25000000  0.25000000  0.25000000  1.0
  Sr  Sr1  1  0.50000000  0.50000000  0.50000000  1.0
  Nd  Nd2  1  0.87500000  0.37500000  0.87500000  1.0
  Nd  Nd3  1  0.87500000  0.87500000  0.37500000  1.0
  Nd  Nd4  1  0.87500000  0.87500000  0.87500000  1.0
  Nd  Nd5  1  0.37500000  0.87500000  0.87500000  1.0
  O  O6  1  0.66890200  0.11036600  0.11036600  1.0
  O  O7  1  0.11036700  0.11036600  0.11036600  1.0
  O  O8  1  0.11036700  0.11036600  0.66890100  1.0
  O  O9  1  0.63963300  0.08109900  0.63963400  1.0
  O  O10  1  0.11036700  0.66890100  0.11036600  1.0
  O  O11  1  0.63963300  0.63963400  0.08109900  1.0
  O  O12  1  0.63963300  0.63963400  0.63963400  1.0
  O  O13  1  0.08109800  0.63963400  0.63963400  1.0
