# generated using pymatgen
data_SrPr(CoO3)2
_symmetry_space_group_name_H-M   'P 1'
_cell_length_a   5.48940100
_cell_length_b   5.55157900
_cell_length_c   7.55460459
_cell_angle_alpha   90.87978126
_cell_angle_beta   90.00000000
_cell_angle_gamma   90.00000000
_symmetry_Int_Tables_number   1
_chemical_formula_structural   SrPr(CoO3)2
_chemical_formula_sum   'Sr2 Pr2 Co4 O12'
_cell_volume   230.19825071
_cell_formula_units_Z   2
loop_
 _symmetry_equiv_pos_site_id
 _symmetry_equiv_pos_as_xyz
  1  'x, y, z'
loop_
 _atom_site_type_symbol
 _atom_site_label
 _atom_site_symmetry_multiplicity
 _atom_site_fract_x
 _atom_site_fract_y
 _atom_site_fract_z
 _atom_site_occupancy
  Sr  Sr0  1  0.76187400  0.49926900  0.25099900  1.0
  Sr  Sr1  1  0.23812600  0.99926900  0.75099900  1.0
  Pr  Pr2  1  0.72889400  0.50842700  0.74925100  1.0
  Pr  Pr3  1  0.27110600  0.00842700  0.24925100  1.0
  Co  Co4  1  0.75217700  0.00003400  0.00005600  1.0
  Co  Co5  1  0.24782300  0.50003400  0.50005600  1.0
  Co  Co6  1  0.75414900  0.00001200  0.50005300  1.0
  Co  Co7  1  0.24585100  0.50001200  0.00005300  1.0
  O  O8  1  0.01557300  0.21906100  0.03380400  1.0
  O  O9  1  0.98442700  0.71906100  0.53380400  1.0
  O  O10  1  0.49787900  0.76848200  0.96915700  1.0
  O  O11  1  0.50212100  0.26848200  0.46915700  1.0
  O  O12  1  0.74364000  0.95244500  0.25420900  1.0
  O  O13  1  0.25636000  0.45244500  0.75420900  1.0
  O  O14  1  0.75162700  0.06543400  0.74597900  1.0
  O  O15  1  0.24837300  0.56543400  0.24597900  1.0
  O  O16  1  0.02700300  0.23811500  0.46588200  1.0
  O  O17  1  0.97299700  0.73811500  0.96588200  1.0
  O  O18  1  0.48516000  0.74872200  0.53061000  1.0
  O  O19  1  0.51484000  0.24872200  0.03061000  1.0
