# generated using pymatgen
data_SrPrScO4
_symmetry_space_group_name_H-M   'P 1'
_cell_length_a   4.04372800
_cell_length_b   4.04372800
_cell_length_c   6.92509332
_cell_angle_alpha   106.97545385
_cell_angle_beta   106.97545384
_cell_angle_gamma   90.00000002
_symmetry_Int_Tables_number   1
_chemical_formula_structural   SrPrScO4
_chemical_formula_sum   'Sr1 Pr1 Sc1 O4'
_cell_volume   103.13403014
_cell_formula_units_Z   1
loop_
 _symmetry_equiv_pos_site_id
 _symmetry_equiv_pos_as_xyz
  1  'x, y, z'
loop_
 _atom_site_type_symbol
 _atom_site_label
 _atom_site_symmetry_multiplicity
 _atom_site_fract_x
 _atom_site_fract_y
 _atom_site_fract_z
 _atom_site_occupancy
  Sr  Sr0  1  0.64679300  0.64679300  0.29358600  1.0
  Pr  Pr1  1  0.36108600  0.36108600  0.72217200  1.0
  Sc  Sc2  1  0.00491300  0.00491300  0.00982600  1.0
  O  O3  1  0.48999300  0.98999300  0.97998600  1.0
  O  O4  1  0.98999300  0.48999300  0.97998600  1.0
  O  O5  1  0.83122100  0.83122100  0.66244200  1.0
  O  O6  1  0.17600000  0.17600000  0.35200000  1.0
