# generated using pymatgen
data_SrPuO4
_symmetry_space_group_name_H-M   'P 1'
_cell_length_a   3.95108182
_cell_length_b   3.95108182
_cell_length_c   6.56728890
_cell_angle_alpha   72.49342275
_cell_angle_beta   72.49342275
_cell_angle_gamma   60.00000297
_symmetry_Int_Tables_number   1
_chemical_formula_structural   SrPuO4
_chemical_formula_sum   'Sr1 Pu1 O4'
_cell_volume   83.25856631
_cell_formula_units_Z   1
loop_
 _symmetry_equiv_pos_site_id
 _symmetry_equiv_pos_as_xyz
  1  'x, y, z'
loop_
 _atom_site_type_symbol
 _atom_site_label
 _atom_site_symmetry_multiplicity
 _atom_site_fract_x
 _atom_site_fract_y
 _atom_site_fract_z
 _atom_site_occupancy
  Sr  Sr0  1  0.50000000  0.50000000  0.50000000  1.0
  Pu  Pu1  1  0.00000000  0.00000000  0.00000000  1.0
  O  O2  1  0.64032800  0.64032800  0.07901600  1.0
  O  O3  1  0.35967200  0.35967200  0.92098400  1.0
  O  O4  1  0.10643700  0.10643700  0.68068900  1.0
  O  O5  1  0.89356300  0.89356300  0.31931100  1.0
