# generated using pymatgen
data_SrReN2
_symmetry_space_group_name_H-M   'P 1'
_cell_length_a   5.13795924
_cell_length_b   6.92549495
_cell_length_c   7.41009000
_cell_angle_alpha   90.00000000
_cell_angle_beta   90.00000000
_cell_angle_gamma   111.76516986
_symmetry_Int_Tables_number   1
_chemical_formula_structural   SrReN2
_chemical_formula_sum   'Sr4 Re4 N8'
_cell_volume   244.87572536
_cell_formula_units_Z   4
loop_
 _symmetry_equiv_pos_site_id
 _symmetry_equiv_pos_as_xyz
  1  'x, y, z'
loop_
 _atom_site_type_symbol
 _atom_site_label
 _atom_site_symmetry_multiplicity
 _atom_site_fract_x
 _atom_site_fract_y
 _atom_site_fract_z
 _atom_site_occupancy
  Sr  Sr0  1  0.66518000  0.33039600  0.08876000  1.0
  Sr  Sr1  1  0.83482000  0.66960400  0.58876000  1.0
  Sr  Sr2  1  0.33482000  0.66960400  0.91124000  1.0
  Sr  Sr3  1  0.16518000  0.33039600  0.41124000  1.0
  Re  Re4  1  0.57019800  0.14046500  0.65652600  1.0
  Re  Re5  1  0.92980200  0.85953500  0.15652600  1.0
  Re  Re6  1  0.42980200  0.85953500  0.34347400  1.0
  Re  Re7  1  0.07019800  0.14046500  0.84347400  1.0
  N  N8  1  0.08995100  0.17993100  0.09583200  1.0
  N  N9  1  0.41004900  0.82006900  0.59583200  1.0
  N  N10  1  0.91004900  0.82006900  0.90416800  1.0
  N  N11  1  0.58995100  0.17993100  0.40416800  1.0
  N  N12  1  0.42310700  0.34606500  0.75009100  1.0
  N  N13  1  0.07689300  0.65393500  0.25009100  1.0
  N  N14  1  0.57689300  0.65393500  0.24990900  1.0
  N  N15  1  0.92310700  0.34606500  0.74990900  1.0
