# generated using pymatgen
data_SrSmAlO4
_symmetry_space_group_name_H-M   'P 1'
_cell_length_a   3.75453800
_cell_length_b   3.75453800
_cell_length_c   6.72386347
_cell_angle_alpha   106.21216512
_cell_angle_beta   106.21216513
_cell_angle_gamma   89.99999999
_symmetry_Int_Tables_number   1
_chemical_formula_structural   SrSmAlO4
_chemical_formula_sum   'Sr1 Sm1 Al1 O4'
_cell_volume   87.08210634
_cell_formula_units_Z   1
loop_
 _symmetry_equiv_pos_site_id
 _symmetry_equiv_pos_as_xyz
  1  'x, y, z'
loop_
 _atom_site_type_symbol
 _atom_site_label
 _atom_site_symmetry_multiplicity
 _atom_site_fract_x
 _atom_site_fract_y
 _atom_site_fract_z
 _atom_site_occupancy
  Sr  Sr0  1  0.64455700  0.64455700  0.28911400  1.0
  Sm  Sm1  1  0.36028000  0.36028000  0.72056000  1.0
  Al  Al2  1  0.00251700  0.00251700  0.00503400  1.0
  O  O3  1  0.83918700  0.83918700  0.67837400  1.0
  O  O4  1  0.16786000  0.16786000  0.33572000  1.0
  O  O5  1  0.99280000  0.49280000  0.98560000  1.0
  O  O6  1  0.49280000  0.99280000  0.98560000  1.0
