# generated using pymatgen
data_SrWO4
_symmetry_space_group_name_H-M   'P 1'
_cell_length_a   5.54032600
_cell_length_b   5.54032600
_cell_length_c   7.18522762
_cell_angle_alpha   112.67701190
_cell_angle_beta   112.67701190
_cell_angle_gamma   90.00000000
_symmetry_Int_Tables_number   1
_chemical_formula_structural   SrWO4
_chemical_formula_sum   'Sr2 W2 O8'
_cell_volume   184.88582668
_cell_formula_units_Z   2
loop_
 _symmetry_equiv_pos_site_id
 _symmetry_equiv_pos_as_xyz
  1  'x, y, z'
loop_
 _atom_site_type_symbol
 _atom_site_label
 _atom_site_symmetry_multiplicity
 _atom_site_fract_x
 _atom_site_fract_y
 _atom_site_fract_z
 _atom_site_occupancy
  Sr  Sr0  1  0.75000000  0.25000000  0.50000000  1.0
  Sr  Sr1  1  0.00000000  0.00000000  0.00000000  1.0
  W  W2  1  0.25000000  0.75000000  0.50000000  1.0
  W  W3  1  0.50000000  0.50000000  1.00000000  1.0
  O  O4  1  0.57115900  0.69511000  0.66697400  1.0
  O  O5  1  0.09581500  0.97186400  0.66697400  1.0
  O  O6  1  0.44511000  0.34581500  0.16697400  1.0
  O  O7  1  0.72186400  0.82115900  0.16697400  1.0
  O  O8  1  0.17884100  0.55489000  0.83302600  1.0
  O  O9  1  0.65418500  0.27813600  0.83302600  1.0
  O  O10  1  0.30489000  0.90418500  0.33302600  1.0
  O  O11  1  0.02813600  0.42884100  0.33302600  1.0
