# generated using pymatgen
data_SrZrN2
_symmetry_space_group_name_H-M   'P 1'
_cell_length_a   3.39791488
_cell_length_b   3.39791488
_cell_length_c   6.25930154
_cell_angle_alpha   74.25065981
_cell_angle_beta   74.25065981
_cell_angle_gamma   59.99998291
_symmetry_Int_Tables_number   1
_chemical_formula_structural   SrZrN2
_chemical_formula_sum   'Sr1 Zr1 N2'
_cell_volume   59.43316623
_cell_formula_units_Z   1
loop_
 _symmetry_equiv_pos_site_id
 _symmetry_equiv_pos_as_xyz
  1  'x, y, z'
loop_
 _atom_site_type_symbol
 _atom_site_label
 _atom_site_symmetry_multiplicity
 _atom_site_fract_x
 _atom_site_fract_y
 _atom_site_fract_z
 _atom_site_occupancy
  Sr  Sr0  1  0.00000000  0.00000000  0.00000000  1.0
  Zr  Zr1  1  0.50000000  0.50000000  0.50000000  1.0
  N  N2  1  0.76610500  0.76610500  0.70168500  1.0
  N  N3  1  0.23389500  0.23389500  0.29831500  1.0
