# generated using pymatgen
data_Ta2CS2
_symmetry_space_group_name_H-M   'P 1'
_cell_length_a   3.28669624
_cell_length_b   3.28669624
_cell_length_c   9.80703541
_cell_angle_alpha   80.35352584
_cell_angle_beta   80.35352584
_cell_angle_gamma   59.99999522
_symmetry_Int_Tables_number   1
_chemical_formula_structural   Ta2CS2
_chemical_formula_sum   'Ta2 C1 S2'
_cell_volume   90.01225436
_cell_formula_units_Z   1
loop_
 _symmetry_equiv_pos_site_id
 _symmetry_equiv_pos_as_xyz
  1  'x, y, z'
loop_
 _atom_site_type_symbol
 _atom_site_label
 _atom_site_symmetry_multiplicity
 _atom_site_fract_x
 _atom_site_fract_y
 _atom_site_fract_z
 _atom_site_occupancy
  Ta  Ta0  1  0.62566500  0.62566500  0.12300500  1.0
  Ta  Ta1  1  0.37433500  0.37433500  0.87699500  1.0
  C  C2  1  0.00000000  0.00000000  0.00000000  1.0
  S  S3  1  0.76416200  0.76416200  0.70751400  1.0
  S  S4  1  0.23583800  0.23583800  0.29248600  1.0
