# generated using pymatgen
data_Ta2O5
_symmetry_space_group_name_H-M   'P 1'
_cell_length_a   3.87120600
_cell_length_b   3.90443500
_cell_length_c   6.84365249
_cell_angle_alpha   90.00002528
_cell_angle_beta   106.42925561
_cell_angle_gamma   90.00000025
_symmetry_Int_Tables_number   1
_chemical_formula_structural   Ta2O5
_chemical_formula_sum   'Ta2 O5'
_cell_volume   99.21740684
_cell_formula_units_Z   1
loop_
 _symmetry_equiv_pos_site_id
 _symmetry_equiv_pos_as_xyz
  1  'x, y, z'
loop_
 _atom_site_type_symbol
 _atom_site_label
 _atom_site_symmetry_multiplicity
 _atom_site_fract_x
 _atom_site_fract_y
 _atom_site_fract_z
 _atom_site_occupancy
  O  O4  1  0.70355000  0.99999900  0.36995500  1.0
  O  O5  1  0.33359500  0.00000100  0.63004500  1.0
  O  O8  1  0.87010500  0.49999950  0.70307600  1.0
  O  O9  1  0.16703000  0.49999950  0.29692300  1.0
  O  O11  1  0.01857350  0.00000000  0.99999900  1.0
  Ta  Ta0  1  0.16440200  0.99999750  0.29166300  1.0
  Ta  Ta1  1  0.87273850  0.00000250  0.70833600  1.0
