# generated using pymatgen
data_Ta2V3Cu
_symmetry_space_group_name_H-M   'P 1'
_cell_length_a   4.94796600
_cell_length_b   4.94796578
_cell_length_c   8.38891200
_cell_angle_alpha   90.00000000
_cell_angle_beta   90.00000000
_cell_angle_gamma   120.00000146
_symmetry_Int_Tables_number   1
_chemical_formula_structural   Ta2V3Cu
_chemical_formula_sum   'Ta4 V6 Cu2'
_cell_volume   177.86465650
_cell_formula_units_Z   2
loop_
 _symmetry_equiv_pos_site_id
 _symmetry_equiv_pos_as_xyz
  1  'x, y, z'
loop_
 _atom_site_type_symbol
 _atom_site_label
 _atom_site_symmetry_multiplicity
 _atom_site_fract_x
 _atom_site_fract_y
 _atom_site_fract_z
 _atom_site_occupancy
  Ta  Ta0  1  0.66666667  0.33333333  0.55898900  1.0
  Ta  Ta1  1  0.33333333  0.66666667  0.44101100  1.0
  Ta  Ta2  1  0.33333333  0.66666667  0.05898900  1.0
  Ta  Ta3  1  0.66666667  0.33333333  0.94101100  1.0
  V  V4  1  0.17387500  0.34775000  0.75000000  1.0
  V  V5  1  0.17387500  0.82612600  0.75000000  1.0
  V  V6  1  0.65225100  0.82612600  0.75000000  1.0
  V  V7  1  0.82612500  0.65225000  0.25000000  1.0
  V  V8  1  0.82612500  0.17387400  0.25000000  1.0
  V  V9  1  0.34774900  0.17387400  0.25000000  1.0
  Cu  Cu10  1  0.00000000  0.00000000  0.50000000  1.0
  Cu  Cu11  1  0.00000000  0.00000000  0.00000000  1.0
