# generated using pymatgen
data_Ta3MoS8
_symmetry_space_group_name_H-M   'P 1'
_cell_length_a   3.31222800
_cell_length_b   5.74792001
_cell_length_c   12.86865261
_cell_angle_alpha   94.30568454
_cell_angle_beta   97.39411043
_cell_angle_gamma   90.00000000
_symmetry_Int_Tables_number   1
_chemical_formula_structural   Ta3MoS8
_chemical_formula_sum   'Ta3 Mo1 S8'
_cell_volume   242.26424298
_cell_formula_units_Z   1
loop_
 _symmetry_equiv_pos_site_id
 _symmetry_equiv_pos_as_xyz
  1  'x, y, z'
loop_
 _atom_site_type_symbol
 _atom_site_label
 _atom_site_symmetry_multiplicity
 _atom_site_fract_x
 _atom_site_fract_y
 _atom_site_fract_z
 _atom_site_occupancy
  Ta  Ta0  1  0.62488000  0.54055800  0.24976000  1.0
  Ta  Ta1  1  0.37500500  0.78857900  0.75001000  1.0
  Ta  Ta2  1  0.12499500  0.04165000  0.24999000  1.0
  Mo  Mo3  1  0.87507700  0.29355900  0.75015400  1.0
  S  S4  1  0.31495300  0.10886800  0.62990600  1.0
  S  S5  1  0.06295300  0.35456500  0.12590600  1.0
  S  S6  1  0.81389800  0.60101400  0.62779600  1.0
  S  S7  1  0.56307600  0.85466700  0.12615200  1.0
  S  S8  1  0.18692600  0.39625300  0.37385200  1.0
  S  S9  1  0.93623900  0.64220100  0.87247800  1.0
  S  S10  1  0.68692700  0.89575700  0.37385400  1.0
  S  S11  1  0.43517000  0.14902900  0.87034000  1.0
