# generated using pymatgen
data_Ta3Mn8Al
_symmetry_space_group_name_H-M   'P 1'
_cell_length_a   4.77157600
_cell_length_b   4.77157511
_cell_length_c   7.87483900
_cell_angle_alpha   90.00000000
_cell_angle_beta   90.00000000
_cell_angle_gamma   120.00000619
_symmetry_Int_Tables_number   1
_chemical_formula_structural   Ta3Mn8Al
_chemical_formula_sum   'Ta3 Mn8 Al1'
_cell_volume   155.27298369
_cell_formula_units_Z   1
loop_
 _symmetry_equiv_pos_site_id
 _symmetry_equiv_pos_as_xyz
  1  'x, y, z'
loop_
 _atom_site_type_symbol
 _atom_site_label
 _atom_site_symmetry_multiplicity
 _atom_site_fract_x
 _atom_site_fract_y
 _atom_site_fract_z
 _atom_site_occupancy
  Ta  Ta0  1  0.00000000  0.00000000  0.44156600  1.0
  Ta  Ta1  1  0.00000000  0.00000000  0.06490500  1.0
  Ta  Ta2  1  0.33333333  0.66666667  0.92484100  1.0
  Mn  Mn3  1  0.66666667  0.33333333  0.50173000  1.0
  Mn  Mn4  1  0.66666667  0.33333333  0.00602000  1.0
  Mn  Mn5  1  0.83828900  0.67657800  0.74840000  1.0
  Mn  Mn6  1  0.83828900  0.16171100  0.74840000  1.0
  Mn  Mn7  1  0.32342200  0.16171100  0.74840000  1.0
  Mn  Mn8  1  0.49319100  0.98638200  0.25093800  1.0
  Mn  Mn9  1  0.49319100  0.50680800  0.25093800  1.0
  Mn  Mn10  1  0.01361700  0.50680800  0.25093800  1.0
  Al  Al11  1  0.33333333  0.66666667  0.56292900  1.0
