# generated using pymatgen
data_Ta3V7Si6
_symmetry_space_group_name_H-M   'P 1'
_cell_length_a   4.89486300
_cell_length_b   7.29942400
_cell_length_c   7.29942347
_cell_angle_alpha   120.00000242
_cell_angle_beta   90.00000000
_cell_angle_gamma   90.00000000
_symmetry_Int_Tables_number   1
_chemical_formula_structural   Ta3V7Si6
_chemical_formula_sum   'Ta3 V7 Si6'
_cell_volume   225.86467507
_cell_formula_units_Z   1
loop_
 _symmetry_equiv_pos_site_id
 _symmetry_equiv_pos_as_xyz
  1  'x, y, z'
loop_
 _atom_site_type_symbol
 _atom_site_label
 _atom_site_symmetry_multiplicity
 _atom_site_fract_x
 _atom_site_fract_y
 _atom_site_fract_z
 _atom_site_occupancy
  Ta  Ta0  1  1.00000000  0.77091500  0.77091500  1.0
  Ta  Ta1  1  0.00000000  0.00000000  0.22908500  1.0
  Ta  Ta2  1  1.00000000  0.22908500  1.00000000  1.0
  V  V3  1  0.25340000  0.66666667  0.33333333  1.0
  V  V4  1  0.25340000  0.33333333  0.66666667  1.0
  V  V5  1  0.74660000  0.33333333  0.66666667  1.0
  V  V6  1  0.74660000  0.66666667  0.33333333  1.0
  V  V7  1  0.50000000  0.26371700  0.26371700  1.0
  V  V8  1  0.50000000  0.00000000  0.73628300  1.0
  V  V9  1  0.50000000  0.73628300  1.00000000  1.0
  Si  Si10  1  0.50000000  0.61031800  0.61031800  1.0
  Si  Si11  1  0.50000000  0.00000000  0.38968200  1.0
  Si  Si12  1  0.50000000  0.38968200  1.00000000  1.0
  Si  Si13  1  1.00000000  0.40843600  0.40843600  1.0
  Si  Si14  1  0.00000000  0.00000000  0.59156400  1.0
  Si  Si15  1  0.00000000  0.59156400  1.00000000  1.0
