# generated using pymatgen
data_Ta5B6
_symmetry_space_group_name_H-M   'P 1'
_cell_length_a   3.15934400
_cell_length_b   3.30715800
_cell_length_c   11.48079682
_cell_angle_alpha   90.00000000
_cell_angle_beta   97.90856079
_cell_angle_gamma   90.00000000
_symmetry_Int_Tables_number   1
_chemical_formula_structural   Ta5B6
_chemical_formula_sum   'Ta5 B6'
_cell_volume   118.81561244
_cell_formula_units_Z   1
loop_
 _symmetry_equiv_pos_site_id
 _symmetry_equiv_pos_as_xyz
  1  'x, y, z'
loop_
 _atom_site_type_symbol
 _atom_site_label
 _atom_site_symmetry_multiplicity
 _atom_site_fract_x
 _atom_site_fract_y
 _atom_site_fract_z
 _atom_site_occupancy
  Ta  Ta0  1  0.19450500  0.50000000  0.38901000  1.0
  Ta  Ta1  1  0.80549500  0.50000000  0.61099000  1.0
  Ta  Ta2  1  0.38572800  0.00000000  0.77145600  1.0
  Ta  Ta3  1  0.61427200  0.00000000  0.22854400  1.0
  Ta  Ta4  1  0.00000000  0.00000000  0.00000000  1.0
  B  B5  1  0.46029000  0.50000000  0.92058000  1.0
  B  B6  1  0.53971000  0.50000000  0.07942000  1.0
  B  B7  1  0.27313200  0.00000000  0.54626400  1.0
  B  B8  1  0.72686800  1.00000000  0.45373600  1.0
  B  B9  1  0.08231200  0.50000000  0.16462400  1.0
  B  B10  1  0.91768800  0.50000000  0.83537600  1.0
