# generated using pymatgen
data_Ta5Ge3B
_symmetry_space_group_name_H-M   'P 1'
_cell_length_a   5.37120600
_cell_length_b   7.74434400
_cell_length_c   7.74434431
_cell_angle_alpha   119.99999866
_cell_angle_beta   90.00000000
_cell_angle_gamma   90.00000000
_symmetry_Int_Tables_number   1
_chemical_formula_structural   Ta5Ge3B
_chemical_formula_sum   'Ta10 Ge6 B2'
_cell_volume   278.97914284
_cell_formula_units_Z   2
loop_
 _symmetry_equiv_pos_site_id
 _symmetry_equiv_pos_as_xyz
  1  'x, y, z'
loop_
 _atom_site_type_symbol
 _atom_site_label
 _atom_site_symmetry_multiplicity
 _atom_site_fract_x
 _atom_site_fract_y
 _atom_site_fract_z
 _atom_site_occupancy
  Ta  Ta0  1  0.50000000  0.33333333  0.66666667  1.0
  Ta  Ta1  1  0.50000000  0.66666667  0.33333333  1.0
  Ta  Ta2  1  0.00000000  0.66666667  0.33333333  1.0
  Ta  Ta3  1  1.00000000  0.33333333  0.66666667  1.0
  Ta  Ta4  1  0.75000000  0.24373200  0.00000000  1.0
  Ta  Ta5  1  0.75000000  0.75626800  0.75626800  1.0
  Ta  Ta6  1  0.75000000  1.00000000  0.24373200  1.0
  Ta  Ta7  1  0.25000000  0.75626800  0.00000000  1.0
  Ta  Ta8  1  0.25000000  0.24373200  0.24373200  1.0
  Ta  Ta9  1  0.25000000  1.00000000  0.75626800  1.0
  Ge  Ge10  1  0.75000000  0.59972800  0.00000000  1.0
  Ge  Ge11  1  0.75000000  0.40027200  0.40027200  1.0
  Ge  Ge12  1  0.75000000  1.00000000  0.59972800  1.0
  Ge  Ge13  1  0.25000000  0.40027200  0.00000000  1.0
  Ge  Ge14  1  0.25000000  0.59972800  0.59972800  1.0
  Ge  Ge15  1  0.25000000  1.00000000  0.40027200  1.0
  B  B16  1  0.50000000  0.00000000  0.00000000  1.0
  B  B17  1  0.00000000  0.00000000  0.00000000  1.0
