# generated using pymatgen
data_TaFeO4
_symmetry_space_group_name_H-M   'P 1'
_cell_length_a   3.88789000
_cell_length_b   6.64095710
_cell_length_c   6.73438933
_cell_angle_alpha   106.76720321
_cell_angle_beta   90.00000000
_cell_angle_gamma   107.02090527
_symmetry_Int_Tables_number   1
_chemical_formula_structural   TaFeO4
_chemical_formula_sum   'Ta2 Fe2 O8'
_cell_volume   158.51390051
_cell_formula_units_Z   2
loop_
 _symmetry_equiv_pos_site_id
 _symmetry_equiv_pos_as_xyz
  1  'x, y, z'
loop_
 _atom_site_type_symbol
 _atom_site_label
 _atom_site_symmetry_multiplicity
 _atom_site_fract_x
 _atom_site_fract_y
 _atom_site_fract_z
 _atom_site_occupancy
  Ta  Ta0  1  0.10409500  0.20819000  0.22332100  1.0
  Ta  Ta1  1  0.89590500  0.79181000  0.77667900  1.0
  Fe  Fe2  1  0.19675000  0.39350000  0.80707700  1.0
  Fe  Fe3  1  0.80325000  0.60650000  0.19292300  1.0
  O  O4  1  0.05448400  0.10896800  0.86893100  1.0
  O  O5  1  0.13595900  0.27191800  0.50818100  1.0
  O  O6  1  0.36589200  0.73178400  0.79733100  1.0
  O  O7  1  0.25564400  0.51128800  0.14760500  1.0
  O  O8  1  0.74435600  0.48871200  0.85239500  1.0
  O  O9  1  0.63410800  0.26821600  0.20266900  1.0
  O  O10  1  0.86404100  0.72808200  0.49181900  1.0
  O  O11  1  0.94551600  0.89103200  0.13106900  1.0
