# generated using pymatgen
data_TaTiNi6
_symmetry_space_group_name_H-M   'P 1'
_cell_length_a   4.22911300
_cell_length_b   5.12599800
_cell_length_c   5.12599758
_cell_angle_alpha   120.00000273
_cell_angle_beta   90.00000000
_cell_angle_gamma   90.00000000
_symmetry_Int_Tables_number   1
_chemical_formula_structural   TaTiNi6
_chemical_formula_sum   'Ta1 Ti1 Ni6'
_cell_volume   96.23581722
_cell_formula_units_Z   1
loop_
 _symmetry_equiv_pos_site_id
 _symmetry_equiv_pos_as_xyz
  1  'x, y, z'
loop_
 _atom_site_type_symbol
 _atom_site_label
 _atom_site_symmetry_multiplicity
 _atom_site_fract_x
 _atom_site_fract_y
 _atom_site_fract_z
 _atom_site_occupancy
  Ta  Ta0  1  0.50000000  0.33333333  0.66666667  1.0
  Ti  Ti1  1  1.00000000  0.66666667  0.33333333  1.0
  Ni  Ni2  1  0.50000000  0.32726800  0.16363400  1.0
  Ni  Ni3  1  0.50000000  0.83636600  0.67273200  1.0
  Ni  Ni4  1  0.50000000  0.83636600  0.16363400  1.0
  Ni  Ni5  1  0.00000000  0.67582500  0.83791200  1.0
  Ni  Ni6  1  0.00000000  0.16208700  0.32417400  1.0
  Ni  Ni7  1  1.00000000  0.16208700  0.83791200  1.0
