# generated using pymatgen
data_TaTl(CuS2)2
_symmetry_space_group_name_H-M   'P 1'
_cell_length_a   5.57753000
_cell_length_b   7.51630700
_cell_length_c   9.81807230
_cell_angle_alpha   90.00000000
_cell_angle_beta   106.50171522
_cell_angle_gamma   90.00000000
_symmetry_Int_Tables_number   1
_chemical_formula_structural   TaTl(CuS2)2
_chemical_formula_sum   'Ta2 Tl2 Cu4 S8'
_cell_volume   394.64423605
_cell_formula_units_Z   2
loop_
 _symmetry_equiv_pos_site_id
 _symmetry_equiv_pos_as_xyz
  1  'x, y, z'
loop_
 _atom_site_type_symbol
 _atom_site_label
 _atom_site_symmetry_multiplicity
 _atom_site_fract_x
 _atom_site_fract_y
 _atom_site_fract_z
 _atom_site_occupancy
  Ta  Ta0  1  0.60427400  0.25000000  0.21833600  1.0
  Ta  Ta1  1  0.38593800  0.75000000  0.78166400  1.0
  Tl  Tl2  1  0.14827200  0.25000000  0.63695900  1.0
  Tl  Tl3  1  0.51131300  0.75000000  0.36304100  1.0
  Cu  Cu4  1  0.89093000  0.75000000  0.79022200  1.0
  Cu  Cu5  1  0.51151600  0.00000000  1.00000000  1.0
  Cu  Cu6  1  0.10070800  0.25000000  0.20977800  1.0
  Cu  Cu7  1  0.51151600  0.50000000  1.00000000  1.0
  S  S8  1  0.84316400  0.49825300  0.20826900  1.0
  S  S9  1  0.63489500  0.50174700  0.79173100  1.0
  S  S10  1  0.84316400  0.00174700  0.20826900  1.0
  S  S11  1  0.63489500  0.99825300  0.79173100  1.0
  S  S12  1  0.44921300  0.25000000  0.41057600  1.0
  S  S13  1  0.25196600  0.75000000  0.98636500  1.0
  S  S14  1  0.26560100  0.25000000  0.01363500  1.0
  S  S15  1  0.03863700  0.75000000  0.58942400  1.0
