# generated using pymatgen
data_Tb2Al3Si2
_symmetry_space_group_name_H-M   'P 1'
_cell_length_a   4.05375400
_cell_length_b   5.51689219
_cell_length_c   6.64692115
_cell_angle_alpha   100.38010427
_cell_angle_beta   90.00000000
_cell_angle_gamma   111.55503168
_symmetry_Int_Tables_number   1
_chemical_formula_structural   Tb2Al3Si2
_chemical_formula_sum   'Tb2 Al3 Si2'
_cell_volume   135.63739645
_cell_formula_units_Z   1
loop_
 _symmetry_equiv_pos_site_id
 _symmetry_equiv_pos_as_xyz
  1  'x, y, z'
loop_
 _atom_site_type_symbol
 _atom_site_label
 _atom_site_symmetry_multiplicity
 _atom_site_fract_x
 _atom_site_fract_y
 _atom_site_fract_z
 _atom_site_occupancy
  Tb  Tb0  1  0.38013000  0.76026000  0.67743400  1.0
  Tb  Tb1  1  0.61987000  0.23974000  0.32256600  1.0
  Al  Al2  1  0.69440900  0.38881800  0.86636500  1.0
  Al  Al3  1  0.00000000  0.00000000  0.00000000  1.0
  Al  Al4  1  0.30559100  0.61118200  0.13363500  1.0
  Si  Si5  1  0.90732000  0.81464000  0.35939300  1.0
  Si  Si6  1  0.09268000  0.18536000  0.64060700  1.0
