# generated using pymatgen
data_Tb2Al6Si4Pt
_symmetry_space_group_name_H-M   'P 1'
_cell_length_a   4.17499178
_cell_length_b   4.17499178
_cell_length_c   17.09988523
_cell_angle_alpha   82.98803933
_cell_angle_beta   82.98803933
_cell_angle_gamma   60.00000343
_symmetry_Int_Tables_number   1
_chemical_formula_structural   Tb2Al6Si4Pt
_chemical_formula_sum   'Tb2 Al6 Si4 Pt1'
_cell_volume   255.55058546
_cell_formula_units_Z   1
loop_
 _symmetry_equiv_pos_site_id
 _symmetry_equiv_pos_as_xyz
  1  'x, y, z'
loop_
 _atom_site_type_symbol
 _atom_site_label
 _atom_site_symmetry_multiplicity
 _atom_site_fract_x
 _atom_site_fract_y
 _atom_site_fract_z
 _atom_site_occupancy
  Tb  Tb0  1  0.56593100  0.56593100  0.30220700  1.0
  Tb  Tb1  1  0.43406900  0.43406900  0.69779300  1.0
  Al  Al2  1  0.94972000  0.94972000  0.15084000  1.0
  Al  Al3  1  0.05028000  0.05028000  0.84916000  1.0
  Al  Al4  1  0.18517400  0.18517400  0.44447800  1.0
  Al  Al5  1  0.81482600  0.81482600  0.55552200  1.0
  Al  Al6  1  0.31763900  0.31763900  0.04708300  1.0
  Al  Al7  1  0.68236100  0.68236100  0.95291700  1.0
  Si  Si8  1  0.73403400  0.73403400  0.79789800  1.0
  Si  Si9  1  0.13517900  0.13517900  0.59446300  1.0
  Si  Si10  1  0.26596600  0.26596600  0.20210200  1.0
  Si  Si11  1  0.86482100  0.86482100  0.40553700  1.0
  Pt  Pt12  1  0.00000000  0.00000000  0.00000000  1.0
