# generated using pymatgen
data_TbCuTe2
_symmetry_space_group_name_H-M   'P 1'
_cell_length_a   4.36979200
_cell_length_b   4.36980774
_cell_length_c   6.89386800
_cell_angle_alpha   89.99846884
_cell_angle_beta   89.99859864
_cell_angle_gamma   60.00127148
_symmetry_Int_Tables_number   1
_chemical_formula_structural   TbCuTe2
_chemical_formula_sum   'Tb1 Cu1 Te2'
_cell_volume   114.00456818
_cell_formula_units_Z   1
loop_
 _symmetry_equiv_pos_site_id
 _symmetry_equiv_pos_as_xyz
  1  'x, y, z'
loop_
 _atom_site_type_symbol
 _atom_site_label
 _atom_site_symmetry_multiplicity
 _atom_site_fract_x
 _atom_site_fract_y
 _atom_site_fract_z
 _atom_site_occupancy
  Tb  Tb0  1  0.99999800  0.99999900  0.00840500  1.0
  Cu  Cu1  1  0.33333333  0.33333333  0.64059400  1.0
  Te  Te2  1  0.33333333  0.33328967  0.25793700  1.0
  Te  Te3  1  0.66666667  0.66666667  0.73506500  1.0
