# generated using pymatgen
data_TbGa3Ni
_symmetry_space_group_name_H-M   'P 1'
_cell_length_a   4.17628900
_cell_length_b   4.17628900
_cell_length_c   5.87887684
_cell_angle_alpha   110.80536820
_cell_angle_beta   110.80535779
_cell_angle_gamma   90.00000000
_symmetry_Int_Tables_number   1
_chemical_formula_structural   TbGa3Ni
_chemical_formula_sum   'Tb1 Ga3 Ni1'
_cell_volume   88.66077610
_cell_formula_units_Z   1
loop_
 _symmetry_equiv_pos_site_id
 _symmetry_equiv_pos_as_xyz
  1  'x, y, z'
loop_
 _atom_site_type_symbol
 _atom_site_label
 _atom_site_symmetry_multiplicity
 _atom_site_fract_x
 _atom_site_fract_y
 _atom_site_fract_z
 _atom_site_occupancy
  Tb  Tb0  1  0.99025400  0.99025500  0.98050900  1.0
  Ga  Ga1  1  0.73848400  0.23848400  0.47696800  1.0
  Ga  Ga2  1  0.23848400  0.73848400  0.47696800  1.0
  Ga  Ga3  1  0.40376500  0.40376400  0.80752900  1.0
  Ni  Ni4  1  0.62901300  0.62901400  0.25802700  1.0
