# generated using pymatgen
data_TbGe3
_symmetry_space_group_name_H-M   'P 1'
_cell_length_a   3.93901300
_cell_length_b   4.04210600
_cell_length_c   10.73423475
_cell_angle_alpha   100.85248526
_cell_angle_beta   90.00000000
_cell_angle_gamma   90.00000000
_symmetry_Int_Tables_number   1
_chemical_formula_structural   TbGe3
_chemical_formula_sum   'Tb2 Ge6'
_cell_volume   167.85281501
_cell_formula_units_Z   2
loop_
 _symmetry_equiv_pos_site_id
 _symmetry_equiv_pos_as_xyz
  1  'x, y, z'
loop_
 _atom_site_type_symbol
 _atom_site_label
 _atom_site_symmetry_multiplicity
 _atom_site_fract_x
 _atom_site_fract_y
 _atom_site_fract_z
 _atom_site_occupancy
  Tb  Tb0  1  0.75000000  0.91695200  0.83390400  1.0
  Tb  Tb1  1  0.25000000  0.08304800  0.16609600  1.0
  Ge  Ge2  1  0.75000000  0.19134700  0.38269400  1.0
  Ge  Ge3  1  0.25000000  0.80865300  0.61730600  1.0
  Ge  Ge4  1  0.75000000  0.30998200  0.61996400  1.0
  Ge  Ge5  1  0.25000000  0.69001800  0.38003600  1.0
  Ge  Ge6  1  0.75000000  0.53876100  0.07752200  1.0
  Ge  Ge7  1  0.25000000  0.46123900  0.92247800  1.0
