# generated using pymatgen
data_Te2Mo3W(SeS2)2
_symmetry_space_group_name_H-M   'P 1'
_cell_length_a   3.30722800
_cell_length_b   3.30722760
_cell_length_c   37.57466300
_cell_angle_alpha   90.00000000
_cell_angle_beta   90.00000000
_cell_angle_gamma   120.00000402
_symmetry_Int_Tables_number   1
_chemical_formula_structural   Te2Mo3W(SeS2)2
_chemical_formula_sum   'Te2 Mo3 W1 Se2 S4'
_cell_volume   355.92125848
_cell_formula_units_Z   1
loop_
 _symmetry_equiv_pos_site_id
 _symmetry_equiv_pos_as_xyz
  1  'x, y, z'
loop_
 _atom_site_type_symbol
 _atom_site_label
 _atom_site_symmetry_multiplicity
 _atom_site_fract_x
 _atom_site_fract_y
 _atom_site_fract_z
 _atom_site_occupancy
  Te  Te0  1  0.66666667  0.33333333  0.29161700  1.0
  Te  Te1  1  0.66666667  0.33333333  0.39330400  1.0
  Mo  Mo2  1  0.66666667  0.33333333  0.90609500  1.0
  Mo  Mo3  1  0.66666667  0.33333333  0.53033300  1.0
  Mo  Mo4  1  0.33333333  0.66666667  0.34244200  1.0
  W  W5  1  0.33333333  0.66666667  0.71819700  1.0
  Se  Se6  1  0.33333333  0.66666667  0.95073700  1.0
  Se  Se7  1  0.33333333  0.66666667  0.86142100  1.0
  S  S8  1  0.66666667  0.33333333  0.67738200  1.0
  S  S9  1  0.33333333  0.66666667  0.57105100  1.0
  S  S10  1  0.33333333  0.66666667  0.48964700  1.0
  S  S11  1  0.66666667  0.33333333  0.75902600  1.0
