# generated using pymatgen
data_Te2Mo2SeS
_symmetry_space_group_name_H-M   'P 1'
_cell_length_a   3.39912400
_cell_length_b   3.39912423
_cell_length_c   40.00886200
_cell_angle_alpha   90.00000000
_cell_angle_beta   90.00000000
_cell_angle_gamma   119.99999777
_symmetry_Int_Tables_number   1
_chemical_formula_structural   Te2Mo2SeS
_chemical_formula_sum   'Te4 Mo4 Se2 S2'
_cell_volume   400.33253385
_cell_formula_units_Z   2
loop_
 _symmetry_equiv_pos_site_id
 _symmetry_equiv_pos_as_xyz
  1  'x, y, z'
loop_
 _atom_site_type_symbol
 _atom_site_label
 _atom_site_symmetry_multiplicity
 _atom_site_fract_x
 _atom_site_fract_y
 _atom_site_fract_z
 _atom_site_occupancy
  Te  Te0  1  0.00000000  0.00000000  0.67251300  1.0
  Te  Te1  1  0.66666667  0.33333333  0.57631300  1.0
  Te  Te2  1  0.66666667  0.33333333  0.48265600  1.0
  Te  Te3  1  0.00000000  0.00000000  0.76631200  1.0
  Mo  Mo4  1  0.00000000  0.00000000  0.90612000  1.0
  Mo  Mo5  1  0.00000000  0.00000000  0.52948800  1.0
  Mo  Mo6  1  0.66666667  0.33333333  0.71939700  1.0
  Mo  Mo7  1  0.66666667  0.33333333  0.34205700  1.0
  Se  Se8  1  0.00000000  0.00000000  0.30086400  1.0
  Se  Se9  1  0.00000000  0.00000000  0.38325500  1.0
  S  S10  1  0.66666667  0.33333333  0.94370000  1.0
  S  S11  1  0.66666667  0.33333333  0.86857800  1.0
