# generated using pymatgen
data_Te2Mo3W(SeS2)2
_symmetry_space_group_name_H-M   'P 1'
_cell_length_a   3.30616800
_cell_length_b   3.30616845
_cell_length_c   38.94484700
_cell_angle_alpha   90.00000000
_cell_angle_beta   90.00000000
_cell_angle_gamma   119.99999547
_symmetry_Int_Tables_number   1
_chemical_formula_structural   Te2Mo3W(SeS2)2
_chemical_formula_sum   'Te2 Mo3 W1 Se2 S4'
_cell_volume   368.66384514
_cell_formula_units_Z   1
loop_
 _symmetry_equiv_pos_site_id
 _symmetry_equiv_pos_as_xyz
  1  'x, y, z'
loop_
 _atom_site_type_symbol
 _atom_site_label
 _atom_site_symmetry_multiplicity
 _atom_site_fract_x
 _atom_site_fract_y
 _atom_site_fract_z
 _atom_site_occupancy
  Te  Te0  1  0.66666667  0.33333333  0.95684900  1.0
  Te  Te1  1  0.66666667  0.33333333  0.85870600  1.0
  Mo  Mo2  1  0.00000000  0.00000000  0.90777300  1.0
  Mo  Mo3  1  0.00000000  0.00000000  0.53027300  1.0
  Mo  Mo4  1  0.66666667  0.33333333  0.71683900  1.0
  W  W5  1  0.66666667  0.33333333  0.34225700  1.0
  Se  Se6  1  0.00000000  0.00000000  0.67362200  1.0
  Se  Se7  1  0.00000000  0.00000000  0.75997700  1.0
  S  S8  1  0.00000000  0.00000000  0.30287900  1.0
  S  S9  1  0.66666667  0.33333333  0.56944700  1.0
  S  S10  1  0.66666667  0.33333333  0.49101900  1.0
  S  S11  1  0.00000000  0.00000000  0.38161200  1.0
