# generated using pymatgen
data_Te2Mo3Se4
_symmetry_space_group_name_H-M   'P 1'
_cell_length_a   3.39910800
_cell_length_b   3.39910811
_cell_length_c   31.37354600
_cell_angle_alpha   90.00000000
_cell_angle_beta   90.00000000
_cell_angle_gamma   119.99999898
_symmetry_Int_Tables_number   1
_chemical_formula_structural   Te2Mo3Se4
_chemical_formula_sum   'Te2 Mo3 Se4'
_cell_volume   313.92375882
_cell_formula_units_Z   1
loop_
 _symmetry_equiv_pos_site_id
 _symmetry_equiv_pos_as_xyz
  1  'x, y, z'
loop_
 _atom_site_type_symbol
 _atom_site_label
 _atom_site_symmetry_multiplicity
 _atom_site_fract_x
 _atom_site_fract_y
 _atom_site_fract_z
 _atom_site_occupancy
  Te  Te0  1  0.00000000  0.00000000  0.94042600  1.0
  Te  Te1  1  0.00000000  0.00000000  0.05957400  1.0
  Mo  Mo2  1  0.00000000  0.00000000  0.23135300  1.0
  Mo  Mo3  1  0.00000000  0.00000000  0.76864700  1.0
  Mo  Mo4  1  0.66666667  0.33333333  0.00000000  1.0
  Se  Se5  1  0.66666667  0.33333333  0.28381300  1.0
  Se  Se6  1  0.66666667  0.33333333  0.82113800  1.0
  Se  Se7  1  0.66666667  0.33333333  0.17886200  1.0
  Se  Se8  1  0.66666667  0.33333333  0.71618700  1.0
