# generated using pymatgen
data_Te3Mo2Se
_symmetry_space_group_name_H-M   'P 1'
_cell_length_a   3.50008000
_cell_length_b   3.50007983
_cell_length_c   39.62501300
_cell_angle_alpha   90.00000000
_cell_angle_beta   90.00000000
_cell_angle_gamma   120.00000160
_symmetry_Int_Tables_number   1
_chemical_formula_structural   Te3Mo2Se
_chemical_formula_sum   'Te6 Mo4 Se2'
_cell_volume   420.39347162
_cell_formula_units_Z   2
loop_
 _symmetry_equiv_pos_site_id
 _symmetry_equiv_pos_as_xyz
  1  'x, y, z'
loop_
 _atom_site_type_symbol
 _atom_site_label
 _atom_site_symmetry_multiplicity
 _atom_site_fract_x
 _atom_site_fract_y
 _atom_site_fract_z
 _atom_site_occupancy
  Te  Te0  1  0.00000000  0.00000000  0.67194200  1.0
  Te  Te1  1  0.00000000  0.00000000  0.29620500  1.0
  Te  Te2  1  0.66666667  0.33333333  0.57660400  1.0
  Te  Te3  1  0.66666667  0.33333333  0.48407600  1.0
  Te  Te4  1  0.00000000  0.00000000  0.76448600  1.0
  Te  Te5  1  0.00000000  0.00000000  0.38874000  1.0
  Mo  Mo6  1  0.00000000  0.00000000  0.90607500  1.0
  Mo  Mo7  1  0.00000000  0.00000000  0.53034400  1.0
  Mo  Mo8  1  0.66666667  0.33333333  0.71823000  1.0
  Mo  Mo9  1  0.66666667  0.33333333  0.34245300  1.0
  Se  Se10  1  0.66666667  0.33333333  0.94692800  1.0
  Se  Se11  1  0.66666667  0.33333333  0.86516900  1.0
