# generated using pymatgen
data_Te4Mo3WS4
_symmetry_space_group_name_H-M   'P 1'
_cell_length_a   3.36116200
_cell_length_b   3.36116228
_cell_length_c   41.19133100
_cell_angle_alpha   90.00000000
_cell_angle_beta   90.00000000
_cell_angle_gamma   119.99999726
_symmetry_Int_Tables_number   1
_chemical_formula_structural   Te4Mo3WS4
_chemical_formula_sum   'Te4 Mo3 W1 S4'
_cell_volume   403.00960355
_cell_formula_units_Z   1
loop_
 _symmetry_equiv_pos_site_id
 _symmetry_equiv_pos_as_xyz
  1  'x, y, z'
loop_
 _atom_site_type_symbol
 _atom_site_label
 _atom_site_symmetry_multiplicity
 _atom_site_fract_x
 _atom_site_fract_y
 _atom_site_fract_z
 _atom_site_occupancy
  Te  Te0  1  0.66666667  0.33333333  0.66932500  1.0
  Te  Te1  1  0.33333333  0.66666667  0.95513300  1.0
  Te  Te2  1  0.33333333  0.66666667  0.86336600  1.0
  Te  Te3  1  0.66666667  0.33333333  0.76113700  1.0
  Mo  Mo4  1  0.66666667  0.33333333  0.90926100  1.0
  Mo  Mo5  1  0.66666667  0.33333333  0.53007900  1.0
  Mo  Mo6  1  0.33333333  0.66666667  0.71523800  1.0
  W  W7  1  0.33333333  0.66666667  0.34252700  1.0
  S  S8  1  0.66666667  0.33333333  0.30565800  1.0
  S  S9  1  0.33333333  0.66666667  0.56682600  1.0
  S  S10  1  0.33333333  0.66666667  0.49330600  1.0
  S  S11  1  0.66666667  0.33333333  0.37939600  1.0
