# generated using pymatgen
data_Te6Mo3WSe2
_symmetry_space_group_name_H-M   'P 1'
_cell_length_a   3.49919400
_cell_length_b   3.49919409
_cell_length_c   39.59251600
_cell_angle_alpha   90.00000000
_cell_angle_beta   90.00000000
_cell_angle_gamma   119.99999915
_symmetry_Int_Tables_number   1
_chemical_formula_structural   Te6Mo3WSe2
_chemical_formula_sum   'Te6 Mo3 W1 Se2'
_cell_volume   419.83611016
_cell_formula_units_Z   1
loop_
 _symmetry_equiv_pos_site_id
 _symmetry_equiv_pos_as_xyz
  1  'x, y, z'
loop_
 _atom_site_type_symbol
 _atom_site_label
 _atom_site_symmetry_multiplicity
 _atom_site_fract_x
 _atom_site_fract_y
 _atom_site_fract_z
 _atom_site_occupancy
  Te  Te0  1  0.00000000  0.00000000  0.67192600  1.0
  Te  Te1  1  0.00000000  0.00000000  0.29617800  1.0
  Te  Te2  1  0.66666667  0.33333333  0.57691200  1.0
  Te  Te3  1  0.66666667  0.33333333  0.48376500  1.0
  Te  Te4  1  0.00000000  0.00000000  0.76450500  1.0
  Te  Te5  1  0.00000000  0.00000000  0.38875500  1.0
  Mo  Mo6  1  0.00000000  0.00000000  0.90608200  1.0
  Mo  Mo7  1  0.66666667  0.33333333  0.71822800  1.0
  Mo  Mo8  1  0.66666667  0.33333333  0.34245000  1.0
  W  W9  1  0.00000000  0.00000000  0.53034100  1.0
  Se  Se10  1  0.66666667  0.33333333  0.94694400  1.0
  Se  Se11  1  0.66666667  0.33333333  0.86516700  1.0
