# generated using pymatgen
data_Te8MoW3
_symmetry_space_group_name_H-M   'P 1'
_cell_length_a   3.55898400
_cell_length_b   3.55898438
_cell_length_c   40.14818700
_cell_angle_alpha   90.00000000
_cell_angle_beta   90.00000000
_cell_angle_gamma   119.99999642
_symmetry_Int_Tables_number   1
_chemical_formula_structural   Te8MoW3
_chemical_formula_sum   'Te8 Mo1 W3'
_cell_volume   440.40141187
_cell_formula_units_Z   1
loop_
 _symmetry_equiv_pos_site_id
 _symmetry_equiv_pos_as_xyz
  1  'x, y, z'
loop_
 _atom_site_type_symbol
 _atom_site_label
 _atom_site_symmetry_multiplicity
 _atom_site_fract_x
 _atom_site_fract_y
 _atom_site_fract_z
 _atom_site_occupancy
  Te  Te0  1  0.00000000  0.00000000  0.67292500  1.0
  Te  Te1  1  0.00000000  0.00000000  0.29722100  1.0
  Te  Te2  1  0.66666667  0.33333333  0.95118200  1.0
  Te  Te3  1  0.66666667  0.33333333  0.57561300  1.0
  Te  Te4  1  0.66666667  0.33333333  0.86095900  1.0
  Te  Te5  1  0.66666667  0.33333333  0.48507900  1.0
  Te  Te6  1  0.00000000  0.00000000  0.76348800  1.0
  Te  Te7  1  0.00000000  0.00000000  0.38773800  1.0
  Mo  Mo8  1  0.00000000  0.00000000  0.90608200  1.0
  W  W9  1  0.00000000  0.00000000  0.53032500  1.0
  W  W10  1  0.66666667  0.33333333  0.71818500  1.0
  W  W11  1  0.66666667  0.33333333  0.34245600  1.0
