# generated using pymatgen
data_Te8Mo3W
_symmetry_space_group_name_H-M   'P 1'
_cell_length_a   3.55749800
_cell_length_b   3.55749744
_cell_length_c   40.07722500
_cell_angle_alpha   90.00000000
_cell_angle_beta   90.00000000
_cell_angle_gamma   120.00000517
_symmetry_Int_Tables_number   1
_chemical_formula_structural   Te8Mo3W
_chemical_formula_sum   'Te8 Mo3 W1'
_cell_volume   439.25580758
_cell_formula_units_Z   1
loop_
 _symmetry_equiv_pos_site_id
 _symmetry_equiv_pos_as_xyz
  1  'x, y, z'
loop_
 _atom_site_type_symbol
 _atom_site_label
 _atom_site_symmetry_multiplicity
 _atom_site_fract_x
 _atom_site_fract_y
 _atom_site_fract_z
 _atom_site_occupancy
  Te  Te0  1  0.66666667  0.33333333  0.67300300  1.0
  Te  Te1  1  0.66666667  0.33333333  0.29717300  1.0
  Te  Te2  1  0.33333333  0.66666667  0.95125400  1.0
  Te  Te3  1  0.33333333  0.66666667  0.57553400  1.0
  Te  Te4  1  0.33333333  0.66666667  0.86087400  1.0
  Te  Te5  1  0.33333333  0.66666667  0.48515700  1.0
  Te  Te6  1  0.66666667  0.33333333  0.76340000  1.0
  Te  Te7  1  0.66666667  0.33333333  0.38779400  1.0
  Mo  Mo8  1  0.66666667  0.33333333  0.90608400  1.0
  Mo  Mo9  1  0.66666667  0.33333333  0.53033100  1.0
  Mo  Mo10  1  0.33333333  0.66666667  0.71819600  1.0
  W  W11  1  0.33333333  0.66666667  0.34245200  1.0
