# generated using pymatgen
data_TeMoWS3
_symmetry_space_group_name_H-M   'P 1'
_cell_length_a   3.27057800
_cell_length_b   3.27057832
_cell_length_c   37.17529700
_cell_angle_alpha   90.00000000
_cell_angle_beta   90.00000000
_cell_angle_gamma   119.99999679
_symmetry_Int_Tables_number   1
_chemical_formula_structural   TeMoWS3
_chemical_formula_sum   'Te2 Mo2 W2 S6'
_cell_volume   344.37701519
_cell_formula_units_Z   2
loop_
 _symmetry_equiv_pos_site_id
 _symmetry_equiv_pos_as_xyz
  1  'x, y, z'
loop_
 _atom_site_type_symbol
 _atom_site_label
 _atom_site_symmetry_multiplicity
 _atom_site_fract_x
 _atom_site_fract_y
 _atom_site_fract_z
 _atom_site_occupancy
  Te  Te0  1  0.66666667  0.33333333  0.29056000  1.0
  Te  Te1  1  0.66666667  0.33333333  0.39428500  1.0
  Mo  Mo2  1  0.66666667  0.33333333  0.90609000  1.0
  Mo  Mo3  1  0.33333333  0.66666667  0.34240500  1.0
  W  W4  1  0.66666667  0.33333333  0.53039400  1.0
  W  W5  1  0.33333333  0.66666667  0.71820000  1.0
  S  S6  1  0.66666667  0.33333333  0.67660100  1.0
  S  S7  1  0.33333333  0.66666667  0.94749200  1.0
  S  S8  1  0.33333333  0.66666667  0.57195400  1.0
  S  S9  1  0.33333333  0.66666667  0.86467200  1.0
  S  S10  1  0.33333333  0.66666667  0.48880900  1.0
  S  S11  1  0.66666667  0.33333333  0.75979100  1.0
