# generated using pymatgen
data_TeMo2S3
_symmetry_space_group_name_H-M   'P 1'
_cell_length_a   3.27435800
_cell_length_b   3.27435868
_cell_length_c   37.33616400
_cell_angle_alpha   90.00000000
_cell_angle_beta   90.00000000
_cell_angle_gamma   119.99999308
_symmetry_Int_Tables_number   1
_chemical_formula_structural   TeMo2S3
_chemical_formula_sum   'Te2 Mo4 S6'
_cell_volume   346.66721303
_cell_formula_units_Z   2
loop_
 _symmetry_equiv_pos_site_id
 _symmetry_equiv_pos_as_xyz
  1  'x, y, z'
loop_
 _atom_site_type_symbol
 _atom_site_label
 _atom_site_symmetry_multiplicity
 _atom_site_fract_x
 _atom_site_fract_y
 _atom_site_fract_z
 _atom_site_occupancy
  Te  Te0  1  0.00000000  0.00000000  0.29080100  1.0
  Te  Te1  1  0.00000000  0.00000000  0.39406500  1.0
  Mo  Mo2  1  0.00000000  0.00000000  0.90606100  1.0
  Mo  Mo3  1  0.00000000  0.00000000  0.53039200  1.0
  Mo  Mo4  1  0.66666667  0.33333333  0.71820600  1.0
  Mo  Mo5  1  0.66666667  0.33333333  0.34243800  1.0
  S  S6  1  0.00000000  0.00000000  0.67700200  1.0
  S  S7  1  0.66666667  0.33333333  0.94727400  1.0
  S  S8  1  0.66666667  0.33333333  0.57157100  1.0
  S  S9  1  0.66666667  0.33333333  0.86484300  1.0
  S  S10  1  0.66666667  0.33333333  0.48918100  1.0
  S  S11  1  0.00000000  0.00000000  0.75941800  1.0
