# generated using pymatgen
data_TeSeO4
_symmetry_space_group_name_H-M   'P 1'
_cell_length_a   4.47625404
_cell_length_b   6.84548273
_cell_length_c   7.61804844
_cell_angle_alpha   116.59228456
_cell_angle_beta   106.93350450
_cell_angle_gamma   90.32277110
_symmetry_Int_Tables_number   1
_chemical_formula_structural   TeSeO4
_chemical_formula_sum   'Te2 Se2 O8'
_cell_volume   197.14885223
_cell_formula_units_Z   2
loop_
 _symmetry_equiv_pos_site_id
 _symmetry_equiv_pos_as_xyz
  1  'x, y, z'
loop_
 _atom_site_type_symbol
 _atom_site_label
 _atom_site_symmetry_multiplicity
 _atom_site_fract_x
 _atom_site_fract_y
 _atom_site_fract_z
 _atom_site_occupancy
  Te  Te0  1  0.63010100  0.88890900  0.78120800  1.0
  Te  Te1  1  0.34889300  0.10770100  0.21879200  1.0
  Se  Se2  1  0.11806400  0.62689200  0.24898200  1.0
  Se  Se3  1  0.36908200  0.37791000  0.75101800  1.0
  O  O4  1  0.30042000  0.94553000  0.90440200  1.0
  O  O5  1  0.65195600  0.57848400  0.77805000  1.0
  O  O6  1  0.17331200  0.75028900  0.51018300  1.0
  O  O7  1  0.37390600  0.80043400  0.22195000  1.0
  O  O8  1  0.64577600  0.21175300  0.79237600  1.0
  O  O9  1  0.16312900  0.24010600  0.48981700  1.0
  O  O10  1  0.35340000  0.41937700  0.20762400  1.0
  O  O11  1  0.89601800  0.04112800  0.09559800  1.0
