# generated using pymatgen
data_Th2Au
_symmetry_space_group_name_H-M   'P 1'
_cell_length_a   6.06272000
_cell_length_b   6.09043907
_cell_length_c   6.09043907
_cell_angle_alpha   75.65680038
_cell_angle_beta   60.15044007
_cell_angle_gamma   60.15044007
_symmetry_Int_Tables_number   1
_chemical_formula_structural   Th2Au
_chemical_formula_sum   'Th4 Au2'
_cell_volume   169.17598568
_cell_formula_units_Z   2
loop_
 _symmetry_equiv_pos_site_id
 _symmetry_equiv_pos_as_xyz
  1  'x, y, z'
loop_
 _atom_site_type_symbol
 _atom_site_label
 _atom_site_symmetry_multiplicity
 _atom_site_fract_x
 _atom_site_fract_y
 _atom_site_fract_z
 _atom_site_occupancy
  Th  Th0  1  0.84262000  0.81476000  0.50000000  1.0
  Th  Th1  1  0.15738000  0.18524000  0.50000000  1.0
  Th  Th2  1  0.65738000  0.50000000  0.18524000  1.0
  Th  Th3  1  0.34262000  0.50000000  0.81476000  1.0
  Au  Au4  1  0.25000000  0.00000000  1.00000000  1.0
  Au  Au5  1  0.75000000  0.00000000  1.00000000  1.0
