# generated using pymatgen
data_Th2CuSi3
_symmetry_space_group_name_H-M   'P 1'
_cell_length_a   4.14660000
_cell_length_b   4.14660092
_cell_length_c   8.14838000
_cell_angle_alpha   90.00000000
_cell_angle_beta   90.00000000
_cell_angle_gamma   119.99999267
_symmetry_Int_Tables_number   1
_chemical_formula_structural   Th2CuSi3
_chemical_formula_sum   'Th2 Cu1 Si3'
_cell_volume   121.33506332
_cell_formula_units_Z   1
loop_
 _symmetry_equiv_pos_site_id
 _symmetry_equiv_pos_as_xyz
  1  'x, y, z'
loop_
 _atom_site_type_symbol
 _atom_site_label
 _atom_site_symmetry_multiplicity
 _atom_site_fract_x
 _atom_site_fract_y
 _atom_site_fract_z
 _atom_site_occupancy
  Th  Th0  1  0.66666667  0.33333333  0.74555400  1.0
  Th  Th1  1  0.66666667  0.33333333  0.25444600  1.0
  Cu  Cu2  1  0.33333333  0.66666667  1.00000000  1.0
  Si  Si3  1  0.33333333  0.66666667  0.50000000  1.0
  Si  Si4  1  0.00000000  0.00000000  0.00000000  1.0
  Si  Si5  1  0.00000000  0.00000000  0.50000000  1.0
