# generated using pymatgen
data_Th3U3P8
_symmetry_space_group_name_H-M   'P 1'
_cell_length_a   7.28533186
_cell_length_b   7.28533186
_cell_length_c   7.31604957
_cell_angle_alpha   109.63706869
_cell_angle_beta   109.23260773
_cell_angle_gamma   109.37375943
_symmetry_Int_Tables_number   1
_chemical_formula_structural   Th3U3P8
_chemical_formula_sum   'Th3 U3 P8'
_cell_volume   299.54237692
_cell_formula_units_Z   1
loop_
 _symmetry_equiv_pos_site_id
 _symmetry_equiv_pos_as_xyz
  1  'x, y, z'
loop_
 _atom_site_type_symbol
 _atom_site_label
 _atom_site_symmetry_multiplicity
 _atom_site_fract_x
 _atom_site_fract_y
 _atom_site_fract_z
 _atom_site_occupancy
  Th  Th0  1  0.37895700  0.50301000  0.37757100  1.0
  Th  Th1  1  0.12543900  0.00138600  0.62242900  1.0
  Th  Th2  1  0.62196400  0.12196400  0.50000000  1.0
  U  U3  1  0.87785500  0.87785500  0.00000000  1.0
  U  U4  1  0.24800800  0.62169000  0.87330000  1.0
  U  U5  1  0.74839000  0.37470800  0.12670000  1.0
  P  P6  1  0.50974500  0.42263600  0.76837100  1.0
  P  P7  1  0.84855000  0.59238400  0.59740300  1.0
  P  P8  1  0.99498100  0.25114700  0.40259700  1.0
  P  P9  1  0.65426500  0.74137400  0.23162900  1.0
  P  P10  1  0.34023500  0.08422900  0.08512000  1.0
  P  P11  1  0.50763700  0.91283100  0.76796600  1.0
  P  P12  1  0.99910900  0.25511500  0.91488000  1.0
  P  P13  1  0.14486500  0.73967100  0.23203400  1.0
