# generated using pymatgen
data_Th5C4
_symmetry_space_group_name_H-M   'P 1'
_cell_length_a   3.76655588
_cell_length_b   3.76655588
_cell_length_c   15.58789826
_cell_angle_alpha   83.06075729
_cell_angle_beta   83.06075729
_cell_angle_gamma   60.00000203
_symmetry_Int_Tables_number   1
_chemical_formula_structural   Th5C4
_chemical_formula_sum   'Th5 C4'
_cell_volume   189.64403723
_cell_formula_units_Z   1
loop_
 _symmetry_equiv_pos_site_id
 _symmetry_equiv_pos_as_xyz
  1  'x, y, z'
loop_
 _atom_site_type_symbol
 _atom_site_label
 _atom_site_symmetry_multiplicity
 _atom_site_fract_x
 _atom_site_fract_y
 _atom_site_fract_z
 _atom_site_occupancy
  Th  Th0  1  0.10055900  0.10055900  0.69832300  1.0
  Th  Th1  1  0.89944100  0.89944100  0.30167700  1.0
  Th  Th2  1  0.50000000  0.50000000  0.50000000  1.0
  Th  Th3  1  0.70259900  0.70259900  0.89220300  1.0
  Th  Th4  1  0.29740100  0.29740100  0.10779700  1.0
  C  C5  1  0.60393300  0.60393300  0.18820100  1.0
  C  C6  1  0.20118100  0.20118100  0.39645700  1.0
  C  C7  1  0.79881900  0.79881900  0.60354300  1.0
  C  C8  1  0.39606700  0.39606700  0.81179900  1.0
