# generated using pymatgen
data_ThSiTe
_symmetry_space_group_name_H-M   'P 1'
_cell_length_a   4.14568000
_cell_length_b   4.14568000
_cell_length_c   9.75522376
_cell_angle_alpha   102.26802717
_cell_angle_beta   102.26802716
_cell_angle_gamma   90.00000002
_symmetry_Int_Tables_number   1
_chemical_formula_structural   ThSiTe
_chemical_formula_sum   'Th2 Si2 Te2'
_cell_volume   159.91084531
_cell_formula_units_Z   2
loop_
 _symmetry_equiv_pos_site_id
 _symmetry_equiv_pos_as_xyz
  1  'x, y, z'
loop_
 _atom_site_type_symbol
 _atom_site_label
 _atom_site_symmetry_multiplicity
 _atom_site_fract_x
 _atom_site_fract_y
 _atom_site_fract_z
 _atom_site_occupancy
  Th  Th0  1  0.87968300  0.87968300  0.75936600  1.0
  Th  Th1  1  0.12031700  0.12031700  0.24063400  1.0
  Si  Si2  1  0.00000000  0.50000000  0.00000000  1.0
  Si  Si3  1  0.50000000  1.00000000  1.00000000  1.0
  Te  Te4  1  0.68944700  0.68944700  0.37889400  1.0
  Te  Te5  1  0.31055300  0.31055300  0.62110600  1.0
