# generated using pymatgen
data_Ti2VSe4
_symmetry_space_group_name_H-M   'P 1'
_cell_length_a   3.50817600
_cell_length_b   6.39815332
_cell_length_c   6.99041628
_cell_angle_alpha   116.21537200
_cell_angle_beta   104.53240634
_cell_angle_gamma   90.00000000
_symmetry_Int_Tables_number   1
_chemical_formula_structural   Ti2VSe4
_chemical_formula_sum   'Ti2 V1 Se4'
_cell_volume   135.14823447
_cell_formula_units_Z   1
loop_
 _symmetry_equiv_pos_site_id
 _symmetry_equiv_pos_as_xyz
  1  'x, y, z'
loop_
 _atom_site_type_symbol
 _atom_site_label
 _atom_site_symmetry_multiplicity
 _atom_site_fract_x
 _atom_site_fract_y
 _atom_site_fract_z
 _atom_site_occupancy
  Ti  Ti0  1  0.99989800  0.99918500  0.99979600  1.0
  Ti  Ti1  1  0.74727000  0.69942500  0.49454000  1.0
  V  V2  1  0.25269900  0.30043400  0.50539800  1.0
  Se  Se3  1  0.88869100  0.54714100  0.77738200  1.0
  Se  Se4  1  0.10994900  0.44628000  0.21989800  1.0
  Se  Se5  1  0.63770200  0.97466500  0.27540400  1.0
  Se  Se6  1  0.36379100  0.03287100  0.72758200  1.0
