# generated using pymatgen
data_Ti4CoBi2
_symmetry_space_group_name_H-M   'P 1'
_cell_length_a   4.86983400
_cell_length_b   7.87819404
_cell_length_c   7.87819404
_cell_angle_alpha   84.51848868
_cell_angle_beta   71.99677941
_cell_angle_gamma   71.99677941
_symmetry_Int_Tables_number   1
_chemical_formula_structural   Ti4CoBi2
_chemical_formula_sum   'Ti8 Co2 Bi4'
_cell_volume   273.37845814
_cell_formula_units_Z   2
loop_
 _symmetry_equiv_pos_site_id
 _symmetry_equiv_pos_as_xyz
  1  'x, y, z'
loop_
 _atom_site_type_symbol
 _atom_site_label
 _atom_site_symmetry_multiplicity
 _atom_site_fract_x
 _atom_site_fract_y
 _atom_site_fract_z
 _atom_site_occupancy
  Ti  Ti0  1  0.30715500  0.27323700  0.11245300  1.0
  Ti  Ti1  1  0.41960700  0.88754800  0.27323700  1.0
  Ti  Ti2  1  0.91960800  0.27323700  0.88754700  1.0
  Ti  Ti3  1  0.08039200  0.72676300  0.11245300  1.0
  Ti  Ti4  1  0.80715600  0.11245200  0.27323700  1.0
  Ti  Ti5  1  0.19284400  0.88754800  0.72676300  1.0
  Ti  Ti6  1  0.69284500  0.72676300  0.88754700  1.0
  Ti  Ti7  1  0.58039300  0.11245200  0.72676300  1.0
  Co  Co8  1  0.25000000  0.00000000  1.00000000  1.0
  Co  Co9  1  0.75000000  0.00000000  1.00000000  1.0
  Bi  Bi10  1  0.86083400  0.77833100  0.50000000  1.0
  Bi  Bi11  1  0.63916500  0.50000000  0.22167000  1.0
  Bi  Bi12  1  0.36083500  0.50000000  0.77833000  1.0
  Bi  Bi13  1  0.13916600  0.22166900  0.50000000  1.0
