# generated using pymatgen
data_Ti5Ga3
_symmetry_space_group_name_H-M   'P 1'
_cell_length_a   5.31050800
_cell_length_b   7.61657800
_cell_length_c   7.61657797
_cell_angle_alpha   120.00000015
_cell_angle_beta   90.00000000
_cell_angle_gamma   90.00000000
_symmetry_Int_Tables_number   1
_chemical_formula_structural   Ti5Ga3
_chemical_formula_sum   'Ti10 Ga6'
_cell_volume   266.80040525
_cell_formula_units_Z   2
loop_
 _symmetry_equiv_pos_site_id
 _symmetry_equiv_pos_as_xyz
  1  'x, y, z'
loop_
 _atom_site_type_symbol
 _atom_site_label
 _atom_site_symmetry_multiplicity
 _atom_site_fract_x
 _atom_site_fract_y
 _atom_site_fract_z
 _atom_site_occupancy
  Ti  Ti0  1  0.25000000  0.23807600  0.23807600  1.0
  Ti  Ti1  1  0.75000000  0.23807600  1.00000000  1.0
  Ti  Ti2  1  0.75000000  0.00000000  0.23807600  1.0
  Ti  Ti3  1  0.25000000  0.00000000  0.76192400  1.0
  Ti  Ti4  1  0.25000000  0.76192400  1.00000000  1.0
  Ti  Ti5  1  0.75000000  0.76192400  0.76192400  1.0
  Ti  Ti6  1  1.00000000  0.66666667  0.33333333  1.0
  Ti  Ti7  1  0.50000000  0.33333333  0.66666667  1.0
  Ti  Ti8  1  1.00000000  0.33333333  0.66666667  1.0
  Ti  Ti9  1  0.50000000  0.66666667  0.33333333  1.0
  Ga  Ga10  1  0.25000000  0.60566100  0.60566100  1.0
  Ga  Ga11  1  0.75000000  0.60566100  1.00000000  1.0
  Ga  Ga12  1  0.75000000  0.00000000  0.60566100  1.0
  Ga  Ga13  1  0.25000000  0.00000000  0.39433900  1.0
  Ga  Ga14  1  0.25000000  0.39433900  1.00000000  1.0
  Ga  Ga15  1  0.75000000  0.39433900  0.39433900  1.0
