# generated using pymatgen
data_TiBr3
_symmetry_space_group_name_H-M   'P 1'
_cell_length_a   6.48267346
_cell_length_b   6.48822605
_cell_length_c   7.78059473
_cell_angle_alpha   114.50452105
_cell_angle_beta   90.11096502
_cell_angle_gamma   119.66045758
_symmetry_Int_Tables_number   1
_chemical_formula_structural   TiBr3
_chemical_formula_sum   'Ti2 Br6'
_cell_volume   249.72439662
_cell_formula_units_Z   2
loop_
 _symmetry_equiv_pos_site_id
 _symmetry_equiv_pos_as_xyz
  1  'x, y, z'
loop_
 _atom_site_type_symbol
 _atom_site_label
 _atom_site_symmetry_multiplicity
 _atom_site_fract_x
 _atom_site_fract_y
 _atom_site_fract_z
 _atom_site_occupancy
  Ti  Ti0  1  0.66067500  0.84123900  0.99997100  1.0
  Ti  Ti1  1  0.33932500  0.15876100  0.00002900  1.0
  Br  Br2  1  0.72500600  0.29976500  0.22645800  1.0
  Br  Br3  1  0.27499400  0.70023500  0.77354200  1.0
  Br  Br4  1  0.42573600  0.64417900  0.21676700  1.0
  Br  Br5  1  0.57426400  0.35582100  0.78323300  1.0
  Br  Br6  1  0.92690400  0.00076700  0.78130400  1.0
  Br  Br7  1  0.07309600  0.99923300  0.21869600  1.0
