# generated using pymatgen
data_TiCuF6
_symmetry_space_group_name_H-M   'P 1'
_cell_length_a   5.08900312
_cell_length_b   5.21822817
_cell_length_c   5.34814062
_cell_angle_alpha   62.59224285
_cell_angle_beta   89.74655693
_cell_angle_gamma   62.09779332
_symmetry_Int_Tables_number   1
_chemical_formula_structural   TiCuF6
_chemical_formula_sum   'Ti1 Cu1 F6'
_cell_volume   107.31915018
_cell_formula_units_Z   1
loop_
 _symmetry_equiv_pos_site_id
 _symmetry_equiv_pos_as_xyz
  1  'x, y, z'
loop_
 _atom_site_type_symbol
 _atom_site_label
 _atom_site_symmetry_multiplicity
 _atom_site_fract_x
 _atom_site_fract_y
 _atom_site_fract_z
 _atom_site_occupancy
  Ti  Ti0  1  0.50000000  0.00000000  0.50000000  1.0
  Cu  Cu1  1  0.00000000  0.00000000  0.00000000  1.0
  F  F2  1  0.14959700  0.10538900  0.25111700  1.0
  F  F3  1  0.85040300  0.89461100  0.74888300  1.0
  F  F4  1  0.24964800  0.11221000  0.74557300  1.0
  F  F5  1  0.75035200  0.88779000  0.25442700  1.0
  F  F6  1  0.39465000  0.44643000  0.27647300  1.0
  F  F7  1  0.60535000  0.55357000  0.72352700  1.0
