# generated using pymatgen
data_TiFeO3
_symmetry_space_group_name_H-M   'P 1'
_cell_length_a   5.16891192
_cell_length_b   5.16904702
_cell_length_c   5.57049716
_cell_angle_alpha   117.63512457
_cell_angle_beta   89.98543619
_cell_angle_gamma   120.00077452
_symmetry_Int_Tables_number   1
_chemical_formula_structural   TiFeO3
_chemical_formula_sum   'Ti2 Fe2 O6'
_cell_volume   108.85890077
_cell_formula_units_Z   2
loop_
 _symmetry_equiv_pos_site_id
 _symmetry_equiv_pos_as_xyz
  1  'x, y, z'
loop_
 _atom_site_type_symbol
 _atom_site_label
 _atom_site_symmetry_multiplicity
 _atom_site_fract_x
 _atom_site_fract_y
 _atom_site_fract_z
 _atom_site_occupancy
  Fe  Fe4  1  0.64476300  0.28929050  0.93399100  1.0
  Fe  Fe5  1  0.35520950  0.71071600  0.06600800  1.0
  O  O8  1  0.43352750  0.48235600  0.26309000  1.0
  O  O10  1  0.04894900  0.82966800  0.26309000  1.0
  O  O12  1  0.78089100  0.21432800  0.26317500  1.0
  O  O14  1  0.56646950  0.51764150  0.73694900  1.0
  O  O16  1  0.95106150  0.17029750  0.73688300  1.0
  O  O18  1  0.21911400  0.78567200  0.73681600  1.0
  Ti  Ti0  1  0.85392150  0.70765150  0.56149100  1.0
  Ti  Ti2  1  0.14609350  0.29237850  0.43850600  1.0
