# generated using pymatgen
data_TiGeIr
_symmetry_space_group_name_H-M   'P 1'
_cell_length_a   6.58739800
_cell_length_b   7.53761796
_cell_length_c   7.45698000
_cell_angle_alpha   119.64673724
_cell_angle_beta   89.99999999
_cell_angle_gamma   115.91059681
_symmetry_Int_Tables_number   1
_chemical_formula_structural   TiGeIr
_chemical_formula_sum   'Ti6 Ge6 Ir6'
_cell_volume   278.16118317
_cell_formula_units_Z   6
loop_
 _symmetry_equiv_pos_site_id
 _symmetry_equiv_pos_as_xyz
  1  'x, y, z'
loop_
 _atom_site_type_symbol
 _atom_site_label
 _atom_site_symmetry_multiplicity
 _atom_site_fract_x
 _atom_site_fract_y
 _atom_site_fract_z
 _atom_site_occupancy
  Ti  Ti0  1  0.00903300  0.60627000  0.05313500  1.0
  Ti  Ti1  1  0.40276300  0.39373000  0.94686500  1.0
  Ti  Ti2  1  0.45760900  0.45062600  0.47531300  1.0
  Ti  Ti3  1  0.00698300  0.54937500  0.52468800  1.0
  Ti  Ti4  1  0.57863000  0.99961200  0.24980600  1.0
  Ti  Ti5  1  0.57901800  0.00038700  0.75019300  1.0
  Ge  Ge6  1  0.33593600  0.66502000  0.83470100  1.0
  Ge  Ge7  1  0.67091700  0.33498100  0.16530000  1.0
  Ge  Ge8  1  0.33593600  0.66502000  0.33032000  1.0
  Ge  Ge9  1  0.67091700  0.33498100  0.66968100  1.0
  Ge  Ge10  1  0.03874700  0.07712300  0.28856200  1.0
  Ge  Ge11  1  0.96162500  0.92287800  0.71143900  1.0
  Ir  Ir12  1  0.99923000  0.24827600  0.66719700  1.0
  Ir  Ir13  1  0.75095400  0.75172400  0.33280300  1.0
  Ir  Ir14  1  0.99922900  0.24827500  0.08107900  1.0
  Ir  Ir15  1  0.75095500  0.75172500  0.91892100  1.0
  Ir  Ir16  1  0.25575900  0.00000000  0.00000000  1.0
  Ir  Ir17  1  0.25575900  1.00000000  0.50000000  1.0
