# generated using pymatgen
data_TiNbCr4
_symmetry_space_group_name_H-M   'P 1'
_cell_length_a   4.88368107
_cell_length_b   4.88368107
_cell_length_c   4.88368107
_cell_angle_alpha   60.00000000
_cell_angle_beta   60.00000000
_cell_angle_gamma   60.00000000
_symmetry_Int_Tables_number   1
_chemical_formula_structural   TiNbCr4
_chemical_formula_sum   'Ti1 Nb1 Cr4'
_cell_volume   82.36200030
_cell_formula_units_Z   1
loop_
 _symmetry_equiv_pos_site_id
 _symmetry_equiv_pos_as_xyz
  1  'x, y, z'
loop_
 _atom_site_type_symbol
 _atom_site_label
 _atom_site_symmetry_multiplicity
 _atom_site_fract_x
 _atom_site_fract_y
 _atom_site_fract_z
 _atom_site_occupancy
  Ti  Ti0  1  0.00000000  0.00000000  0.00000000  1.0
  Nb  Nb1  1  0.75000000  0.75000000  0.75000000  1.0
  Cr  Cr2  1  0.37491600  0.87525400  0.37491500  1.0
  Cr  Cr3  1  0.37491600  0.37491500  0.37491500  1.0
  Cr  Cr4  1  0.37491600  0.37491500  0.87525400  1.0
  Cr  Cr5  1  0.87525500  0.37491500  0.37491500  1.0
