# generated using pymatgen
data_TiS2
_symmetry_space_group_name_H-M   'P 1'
_cell_length_a   6.94298815
_cell_length_b   6.94298815
_cell_length_c   6.94298815
_cell_angle_alpha   60.00000000
_cell_angle_beta   60.00000000
_cell_angle_gamma   60.00000000
_symmetry_Int_Tables_number   1
_chemical_formula_structural   TiS2
_chemical_formula_sum   'Ti4 S8'
_cell_volume   236.65968070
_cell_formula_units_Z   4
loop_
 _symmetry_equiv_pos_site_id
 _symmetry_equiv_pos_as_xyz
  1  'x, y, z'
loop_
 _atom_site_type_symbol
 _atom_site_label
 _atom_site_symmetry_multiplicity
 _atom_site_fract_x
 _atom_site_fract_y
 _atom_site_fract_z
 _atom_site_occupancy
  Ti  Ti0  1  0.87500000  0.37500000  0.87500000  1.0
  Ti  Ti1  1  0.87500000  0.87500000  0.87500000  1.0
  Ti  Ti2  1  0.87500000  0.87500000  0.37500000  1.0
  Ti  Ti3  1  0.37500000  0.87500000  0.87500000  1.0
  S  S4  1  0.11839400  0.62720200  0.62720200  1.0
  S  S5  1  0.12279700  0.12279800  0.63160700  1.0
  S  S6  1  0.12279700  0.63160700  0.12279800  1.0
  S  S7  1  0.12279700  0.12279800  0.12279800  1.0
  S  S8  1  0.63160600  0.12279800  0.12279800  1.0
  S  S9  1  0.62720300  0.62720200  0.11839300  1.0
  S  S10  1  0.62720300  0.62720200  0.62720200  1.0
  S  S11  1  0.62720300  0.11839300  0.62720200  1.0
