# generated using pymatgen
data_TiVO3
_symmetry_space_group_name_H-M   'P 1'
_cell_length_a   5.14630079
_cell_length_b   5.14619421
_cell_length_c   5.62427549
_cell_angle_alpha   62.77219166
_cell_angle_beta   62.77303845
_cell_angle_gamma   59.99949581
_symmetry_Int_Tables_number   1
_chemical_formula_structural   TiVO3
_chemical_formula_sum   'Ti2 V2 O6'
_cell_volume   109.52502828
_cell_formula_units_Z   2
loop_
 _symmetry_equiv_pos_site_id
 _symmetry_equiv_pos_as_xyz
  1  'x, y, z'
loop_
 _atom_site_type_symbol
 _atom_site_label
 _atom_site_symmetry_multiplicity
 _atom_site_fract_x
 _atom_site_fract_y
 _atom_site_fract_z
 _atom_site_occupancy
  Ti  Ti0  1  0.85488800  0.85488700  0.43534200  1.0
  Ti  Ti1  1  0.14510600  0.14511700  0.56466200  1.0
  V  V2  1  0.34733600  0.34733300  0.95800200  1.0
  V  V3  1  0.65267500  0.65267600  0.04198500  1.0
  O  O4  1  0.22340000  0.56358600  0.26386500  1.0
  O  O5  1  0.94914700  0.22340700  0.26387800  1.0
  O  O6  1  0.56360100  0.94914200  0.26386100  1.0
  O  O7  1  0.43639600  0.05085300  0.73614200  1.0
  O  O8  1  0.05085100  0.77659000  0.73612500  1.0
  O  O9  1  0.77660100  0.43640900  0.73613700  1.0
