# generated using pymatgen
data_Tl2CuF4
_symmetry_space_group_name_H-M   'P 1'
_cell_length_a   4.20245200
_cell_length_b   4.20245200
_cell_length_c   7.52912786
_cell_angle_alpha   106.20528011
_cell_angle_beta   106.20528012
_cell_angle_gamma   89.99999999
_symmetry_Int_Tables_number   1
_chemical_formula_structural   Tl2CuF4
_chemical_formula_sum   'Tl2 Cu1 F4'
_cell_volume   122.17444311
_cell_formula_units_Z   1
loop_
 _symmetry_equiv_pos_site_id
 _symmetry_equiv_pos_as_xyz
  1  'x, y, z'
loop_
 _atom_site_type_symbol
 _atom_site_label
 _atom_site_symmetry_multiplicity
 _atom_site_fract_x
 _atom_site_fract_y
 _atom_site_fract_z
 _atom_site_occupancy
  Tl  Tl0  1  0.64497500  0.64497500  0.28995000  1.0
  Tl  Tl1  1  0.35502500  0.35502500  0.71005000  1.0
  Cu  Cu2  1  0.00000000  0.00000000  0.00000000  1.0
  F  F3  1  0.85823200  0.85823200  0.71646400  1.0
  F  F4  1  0.14176800  0.14176800  0.28353600  1.0
  F  F5  1  0.50000000  1.00000000  1.00000000  1.0
  F  F6  1  1.00000000  0.50000000  1.00000000  1.0
