# generated using pymatgen
data_Tl2S
_symmetry_space_group_name_H-M   'P 1'
_cell_length_a   6.26477100
_cell_length_b   7.29415400
_cell_length_c   7.29415429
_cell_angle_alpha   60.00000133
_cell_angle_beta   90.00000000
_cell_angle_gamma   90.00000000
_symmetry_Int_Tables_number   1
_chemical_formula_structural   Tl2S
_chemical_formula_sum   'Tl6 S3'
_cell_volume   288.65940475
_cell_formula_units_Z   3
loop_
 _symmetry_equiv_pos_site_id
 _symmetry_equiv_pos_as_xyz
  1  'x, y, z'
loop_
 _atom_site_type_symbol
 _atom_site_label
 _atom_site_symmetry_multiplicity
 _atom_site_fract_x
 _atom_site_fract_y
 _atom_site_fract_z
 _atom_site_occupancy
  Tl  Tl0  1  0.91843200  0.29387800  0.66935000  1.0
  Tl  Tl1  1  0.91843200  0.03677200  0.29387800  1.0
  Tl  Tl2  1  0.91843200  0.66935000  0.03677200  1.0
  Tl  Tl3  1  0.39152500  0.96009500  0.66420900  1.0
  Tl  Tl4  1  0.39152500  0.37569600  0.96009500  1.0
  Tl  Tl5  1  0.39152500  0.66420900  0.37569600  1.0
  S  S6  1  0.60636000  0.00000000  0.00000000  1.0
  S  S7  1  0.61537700  0.33333333  0.33333333  1.0
  S  S8  1  0.74639700  0.66666667  0.66666667  1.0
