# generated using pymatgen
data_Tl3AsF6
_symmetry_space_group_name_H-M   'P 1'
_cell_length_a   7.11409623
_cell_length_b   7.12233154
_cell_length_c   7.16476903
_cell_angle_alpha   100.58334784
_cell_angle_beta   101.05649281
_cell_angle_gamma   102.30791585
_symmetry_Int_Tables_number   1
_chemical_formula_structural   Tl3AsF6
_chemical_formula_sum   'Tl3 As1 F6'
_cell_volume   338.42476656
_cell_formula_units_Z   1
loop_
 _symmetry_equiv_pos_site_id
 _symmetry_equiv_pos_as_xyz
  1  'x, y, z'
loop_
 _atom_site_type_symbol
 _atom_site_label
 _atom_site_symmetry_multiplicity
 _atom_site_fract_x
 _atom_site_fract_y
 _atom_site_fract_z
 _atom_site_occupancy
  Tl  Tl0  1  0.00000000  0.00000000  0.50000000  1.0
  Tl  Tl1  1  1.00000000  0.50000000  1.00000000  1.0
  Tl  Tl2  1  0.50000000  0.00000000  0.00000000  1.0
  As  As3  1  0.00000000  0.00000000  0.00000000  1.0
  F  F4  1  0.79239600  0.05926100  0.78496500  1.0
  F  F5  1  0.20760400  0.94073900  0.21503500  1.0
  F  F6  1  0.07692200  0.79472100  0.79680500  1.0
  F  F7  1  0.92307800  0.20527900  0.20319500  1.0
  F  F8  1  0.78747800  0.78269300  0.06105900  1.0
  F  F9  1  0.21252200  0.21730700  0.93894100  1.0
