# generated using pymatgen
data_Tl3FeCl5
_symmetry_space_group_name_H-M   'P 1'
_cell_length_a   8.53448600
_cell_length_b   9.59613846
_cell_length_c   8.53448600
_cell_angle_alpha   116.40308139
_cell_angle_beta   89.99999999
_cell_angle_gamma   116.40308139
_symmetry_Int_Tables_number   1
_chemical_formula_structural   Tl3FeCl5
_chemical_formula_sum   'Tl6 Fe2 Cl10'
_cell_volume   543.44328296
_cell_formula_units_Z   2
loop_
 _symmetry_equiv_pos_site_id
 _symmetry_equiv_pos_as_xyz
  1  'x, y, z'
loop_
 _atom_site_type_symbol
 _atom_site_label
 _atom_site_symmetry_multiplicity
 _atom_site_fract_x
 _atom_site_fract_y
 _atom_site_fract_z
 _atom_site_occupancy
  Tl  Tl0  1  0.75000000  0.50000000  0.75000000  1.0
  Tl  Tl1  1  0.25000000  0.50000000  0.25000000  1.0
  Tl  Tl2  1  0.66454500  0.00000000  0.83545500  1.0
  Tl  Tl3  1  0.16454500  0.00000000  0.66454500  1.0
  Tl  Tl4  1  0.83545500  0.00000000  0.33545500  1.0
  Tl  Tl5  1  0.33545500  1.00000000  0.16454500  1.0
  Fe  Fe6  1  0.25000000  0.50000000  0.75000000  1.0
  Fe  Fe7  1  0.75000000  0.50000000  0.25000000  1.0
  Cl  Cl8  1  0.00000000  0.00000000  0.00000000  1.0
  Cl  Cl9  1  0.50000000  0.00000000  0.50000000  1.0
  Cl  Cl10  1  0.99424600  0.69019500  0.19594900  1.0
  Cl  Cl11  1  0.30405100  0.30980500  0.50575400  1.0
  Cl  Cl12  1  0.00575400  0.30980500  0.80405100  1.0
  Cl  Cl13  1  0.50575400  0.30980500  0.00575400  1.0
  Cl  Cl14  1  0.80405100  0.30980500  0.30405100  1.0
  Cl  Cl15  1  0.49424600  0.69019500  0.99424600  1.0
  Cl  Cl16  1  0.69594900  0.69019500  0.49424600  1.0
  Cl  Cl17  1  0.19594900  0.69019500  0.69594900  1.0
