# generated using pymatgen
data_Tl4GeS4
_symmetry_space_group_name_H-M   'P 1'
_cell_length_a   7.83423229
_cell_length_b   8.77234447
_cell_length_c   8.77234447
_cell_angle_alpha   83.52405367
_cell_angle_beta   72.76142673
_cell_angle_gamma   72.76142673
_symmetry_Int_Tables_number   1
_chemical_formula_structural   Tl4GeS4
_chemical_formula_sum   'Tl8 Ge2 S8'
_cell_volume   549.72283205
_cell_formula_units_Z   2
loop_
 _symmetry_equiv_pos_site_id
 _symmetry_equiv_pos_as_xyz
  1  'x, y, z'
loop_
 _atom_site_type_symbol
 _atom_site_label
 _atom_site_symmetry_multiplicity
 _atom_site_fract_x
 _atom_site_fract_y
 _atom_site_fract_z
 _atom_site_occupancy
  Tl  Tl0  1  0.08046100  0.80022400  0.79497100  1.0
  Tl  Tl1  1  0.58046100  0.79497100  0.80022400  1.0
  Tl  Tl2  1  0.05525100  0.41360600  0.96344200  1.0
  Tl  Tl3  1  0.55525100  0.96344200  0.41360600  1.0
  Tl  Tl4  1  0.08937700  0.98979900  0.26744600  1.0
  Tl  Tl5  1  0.58937700  0.26744600  0.98979900  1.0
  Tl  Tl6  1  0.01881300  0.57985700  0.36433600  1.0
  Tl  Tl7  1  0.51881300  0.36433600  0.57985700  1.0
  Ge  Ge8  1  0.53658700  0.62419500  0.20114700  1.0
  Ge  Ge9  1  0.03658700  0.20114700  0.62419500  1.0
  S  S10  1  0.20335000  0.08874100  0.79583500  1.0
  S  S11  1  0.70335000  0.79583500  0.08874100  1.0
  S  S12  1  0.22401500  0.23550500  0.38055600  1.0
  S  S13  1  0.72401500  0.38055600  0.23550500  1.0
  S  S14  1  0.34737200  0.71532000  0.43920600  1.0
  S  S15  1  0.84737200  0.43920600  0.71532000  1.0
  S  S16  1  0.35807400  0.60884100  0.04857400  1.0
  S  S17  1  0.85807400  0.04857400  0.60884100  1.0
