# generated using pymatgen
data_Tl8SnTe6Pb
_symmetry_space_group_name_H-M   'P 1'
_cell_length_a   8.95180200
_cell_length_b   9.21899781
_cell_length_c   8.95180200
_cell_angle_alpha   119.04578764
_cell_angle_beta   90.00000000
_cell_angle_gamma   119.04578764
_symmetry_Int_Tables_number   1
_chemical_formula_structural   Tl8SnTe6Pb
_chemical_formula_sum   'Tl8 Sn1 Te6 Pb1'
_cell_volume   537.09745280
_cell_formula_units_Z   1
loop_
 _symmetry_equiv_pos_site_id
 _symmetry_equiv_pos_as_xyz
  1  'x, y, z'
loop_
 _atom_site_type_symbol
 _atom_site_label
 _atom_site_symmetry_multiplicity
 _atom_site_fract_x
 _atom_site_fract_y
 _atom_site_fract_z
 _atom_site_occupancy
  Tl  Tl0  1  0.48808300  0.68307200  0.98735500  1.0
  Tl  Tl1  1  0.19498900  0.68307200  0.69571700  1.0
  Tl  Tl2  1  0.98735500  0.68307200  0.19498900  1.0
  Tl  Tl3  1  0.69571700  0.68307200  0.48808300  1.0
  Tl  Tl4  1  0.51191700  0.31692800  0.01264500  1.0
  Tl  Tl5  1  0.80501000  0.31692700  0.30428200  1.0
  Tl  Tl6  1  0.01264500  0.31692800  0.80501100  1.0
  Tl  Tl7  1  0.30428300  0.31692700  0.51191700  1.0
  Sn  Sn8  1  0.00000000  0.00000000  0.00000000  1.0
  Te  Te9  1  0.83791900  0.00000100  0.33214800  1.0
  Te  Te10  1  0.16208100  0.99999900  0.66785200  1.0
  Te  Te11  1  0.33214700  1.00000000  0.16208100  1.0
  Te  Te12  1  0.66785300  0.00000000  0.83791900  1.0
  Te  Te13  1  0.24716900  0.49433800  0.24716900  1.0
  Te  Te14  1  0.75283100  0.50566200  0.75283100  1.0
  Pb  Pb15  1  0.50000000  0.00000000  0.50000000  1.0
