# generated using pymatgen
data_Tl9SbTe6
_symmetry_space_group_name_H-M   'P 1'
_cell_length_a   8.94210200
_cell_length_b   9.26580921
_cell_length_c   8.94210200
_cell_angle_alpha   61.14908714
_cell_angle_beta   90.00000000
_cell_angle_gamma   118.85091286
_symmetry_Int_Tables_number   1
_chemical_formula_structural   Tl9SbTe6
_chemical_formula_sum   'Tl9 Sb1 Te6'
_cell_volume   541.58360439
_cell_formula_units_Z   1
loop_
 _symmetry_equiv_pos_site_id
 _symmetry_equiv_pos_as_xyz
  1  'x, y, z'
loop_
 _atom_site_type_symbol
 _atom_site_label
 _atom_site_symmetry_multiplicity
 _atom_site_fract_x
 _atom_site_fract_y
 _atom_site_fract_z
 _atom_site_occupancy
  Tl  Tl0  1  0.79990300  0.30138400  0.70480100  1.0
  Tl  Tl1  1  0.98487300  0.67153900  0.80734300  1.0
  Tl  Tl2  1  0.99582300  0.99164600  0.00417700  1.0
  Tl  Tl3  1  0.68666600  0.67153900  0.52111800  1.0
  Tl  Tl4  1  0.50148100  0.30138400  0.99381500  1.0
  Tl  Tl5  1  0.29519900  0.30138400  0.49851900  1.0
  Tl  Tl6  1  0.47888200  0.67153900  0.01512700  1.0
  Tl  Tl7  1  0.19265700  0.67153900  0.31333400  1.0
  Tl  Tl8  1  0.00618500  0.30138400  0.20009700  1.0
  Sb  Sb9  1  0.50007400  0.00014800  0.49992600  1.0
  Te  Te10  1  0.72152700  0.44305400  0.27847300  1.0
  Te  Te11  1  0.81449400  0.98452300  0.65740900  1.0
  Te  Te12  1  0.64193200  0.98452300  0.18550600  1.0
  Te  Te13  1  0.24903700  0.49807400  0.75096300  1.0
  Te  Te14  1  0.34259100  0.98452300  0.82997100  1.0
  Te  Te15  1  0.17002900  0.98452300  0.35806800  1.0
