# generated using pymatgen
data_TlIn3
_symmetry_space_group_name_H-M   'P 1'
_cell_length_a   5.78342900
_cell_length_b   6.82894200
_cell_length_c   6.82894178
_cell_angle_alpha   120.00000106
_cell_angle_beta   90.00000000
_cell_angle_gamma   90.00000000
_symmetry_Int_Tables_number   1
_chemical_formula_structural   TlIn3
_chemical_formula_sum   'Tl2 In6'
_cell_volume   233.57312414
_cell_formula_units_Z   2
loop_
 _symmetry_equiv_pos_site_id
 _symmetry_equiv_pos_as_xyz
  1  'x, y, z'
loop_
 _atom_site_type_symbol
 _atom_site_label
 _atom_site_symmetry_multiplicity
 _atom_site_fract_x
 _atom_site_fract_y
 _atom_site_fract_z
 _atom_site_occupancy
  Tl  Tl0  1  0.25000000  0.66666667  0.33333333  1.0
  Tl  Tl1  1  0.75000000  0.33333333  0.66666667  1.0
  In  In2  1  0.75000000  0.83639100  0.16360900  1.0
  In  In3  1  0.75000000  0.32721800  0.16360900  1.0
  In  In4  1  0.75000000  0.83639100  0.67278200  1.0
  In  In5  1  0.25000000  0.16360900  0.83639100  1.0
  In  In6  1  0.25000000  0.67278200  0.83639100  1.0
  In  In7  1  0.25000000  0.16360900  0.32721800  1.0
