# generated using pymatgen
data_TlSn3
_symmetry_space_group_name_H-M   'P 1'
_cell_length_a   5.89225300
_cell_length_b   6.72641400
_cell_length_c   6.72641452
_cell_angle_alpha   60.00000255
_cell_angle_beta   90.00000000
_cell_angle_gamma   90.00000000
_symmetry_Int_Tables_number   1
_chemical_formula_structural   TlSn3
_chemical_formula_sum   'Tl2 Sn6'
_cell_volume   230.87624508
_cell_formula_units_Z   2
loop_
 _symmetry_equiv_pos_site_id
 _symmetry_equiv_pos_as_xyz
  1  'x, y, z'
loop_
 _atom_site_type_symbol
 _atom_site_label
 _atom_site_symmetry_multiplicity
 _atom_site_fract_x
 _atom_site_fract_y
 _atom_site_fract_z
 _atom_site_occupancy
  Tl  Tl0  1  0.25000000  0.33333333  0.33333333  1.0
  Tl  Tl1  1  0.75000000  0.66666667  0.66666667  1.0
  Sn  Sn2  1  0.75000000  0.67928100  0.16035900  1.0
  Sn  Sn3  1  0.75000000  0.16036000  0.16035900  1.0
  Sn  Sn4  1  0.75000000  0.16036000  0.67928000  1.0
  Sn  Sn5  1  0.25000000  0.32071900  0.83964100  1.0
  Sn  Sn6  1  0.25000000  0.83964000  0.83964100  1.0
  Sn  Sn7  1  0.25000000  0.83964000  0.32072000  1.0
