# generated using pymatgen
data_TlSn
_symmetry_space_group_name_H-M   'P 1'
_cell_length_a   3.44732546
_cell_length_b   3.44732546
_cell_length_c   5.79437081
_cell_angle_alpha   83.48618278
_cell_angle_beta   83.48618278
_cell_angle_gamma   60.24608353
_symmetry_Int_Tables_number   1
_chemical_formula_structural   TlSn
_chemical_formula_sum   'Tl1 Sn1'
_cell_volume   59.26595241
_cell_formula_units_Z   1
loop_
 _symmetry_equiv_pos_site_id
 _symmetry_equiv_pos_as_xyz
  1  'x, y, z'
loop_
 _atom_site_type_symbol
 _atom_site_label
 _atom_site_symmetry_multiplicity
 _atom_site_fract_x
 _atom_site_fract_y
 _atom_site_fract_z
 _atom_site_occupancy
  Tl  Tl0  1  0.66761400  0.66761400  0.24851100  1.0
  Sn  Sn1  1  0.33238800  0.33238800  0.75149000  1.0
