# generated using pymatgen
data_TlV(SO4)2
_symmetry_space_group_name_H-M   'P 1'
_cell_length_a   5.16493301
_cell_length_b   5.16499793
_cell_length_c   8.42374901
_cell_angle_alpha   90.00147329
_cell_angle_beta   90.00411316
_cell_angle_gamma   59.99912553
_symmetry_Int_Tables_number   1
_chemical_formula_structural   TlV(SO4)2
_chemical_formula_sum   'Tl1 V1 S2 O8'
_cell_volume   194.61085760
_cell_formula_units_Z   1
loop_
 _symmetry_equiv_pos_site_id
 _symmetry_equiv_pos_as_xyz
  1  'x, y, z'
loop_
 _atom_site_type_symbol
 _atom_site_label
 _atom_site_symmetry_multiplicity
 _atom_site_fract_x
 _atom_site_fract_y
 _atom_site_fract_z
 _atom_site_occupancy
  Tl  Tl0  1  0.99998800  0.00002900  0.49999000  1.0
  V  V1  1  0.00012500  0.99971800  0.00008800  1.0
  S  S2  1  0.66666667  0.66666667  0.20748900  1.0
  S  S3  1  0.33333333  0.33333333  0.79250400  1.0
  O  O4  1  0.78350300  0.35612500  0.14771300  1.0
  O  O5  1  0.86036500  0.78354900  0.14770600  1.0
  O  O6  1  0.21646400  0.13965100  0.85227000  1.0
  O  O7  1  0.35608200  0.86040000  0.14768900  1.0
  O  O8  1  0.13961200  0.64393700  0.85228000  1.0
  O  O9  1  0.64389600  0.21651000  0.85229200  1.0
  O  O10  1  0.66666667  0.66666667  0.38108800  1.0
  O  O11  1  0.33333333  0.33333333  0.61889100  1.0
