# generated using pymatgen
data_TlW2(Cl3O)2
_symmetry_space_group_name_H-M   'P 1'
_cell_length_a   3.86862200
_cell_length_b   6.99681279
_cell_length_c   11.44222954
_cell_angle_alpha   72.53369441
_cell_angle_beta   80.26740069
_cell_angle_gamma   73.95119788
_symmetry_Int_Tables_number   1
_chemical_formula_structural   TlW2(Cl3O)2
_chemical_formula_sum   'Tl1 W2 Cl6 O2'
_cell_volume   282.66999601
_cell_formula_units_Z   1
loop_
 _symmetry_equiv_pos_site_id
 _symmetry_equiv_pos_as_xyz
  1  'x, y, z'
loop_
 _atom_site_type_symbol
 _atom_site_label
 _atom_site_symmetry_multiplicity
 _atom_site_fract_x
 _atom_site_fract_y
 _atom_site_fract_z
 _atom_site_occupancy
  Tl  Tl0  1  0.50000000  0.50000000  0.50000000  1.0
  W  W1  1  0.00507700  0.15484500  0.83500100  1.0
  W  W2  1  0.99492300  0.84515500  0.16499900  1.0
  Cl  Cl3  1  0.13230700  0.77811500  0.95727100  1.0
  Cl  Cl4  1  0.87228800  0.52172400  0.73370000  1.0
  Cl  Cl5  1  0.14318600  0.07116600  0.64246200  1.0
  Cl  Cl6  1  0.85681400  0.92883400  0.35753800  1.0
  Cl  Cl7  1  0.12771200  0.47827600  0.26630000  1.0
  Cl  Cl8  1  0.86769300  0.22188500  0.04272900  1.0
  O  O9  1  0.50324900  0.15183800  0.84166400  1.0
  O  O10  1  0.49675100  0.84816200  0.15833600  1.0
