# generated using pymatgen
data_Tm(MnAl)6
_symmetry_space_group_name_H-M   'P 1'
_cell_length_a   4.92936400
_cell_length_b   6.59361860
_cell_length_c   6.59361860
_cell_angle_alpha   80.95558321
_cell_angle_beta   68.04995342
_cell_angle_gamma   68.04995342
_symmetry_Int_Tables_number   1
_chemical_formula_structural   Tm(MnAl)6
_chemical_formula_sum   'Tm1 Mn6 Al6'
_cell_volume   184.32583568
_cell_formula_units_Z   1
loop_
 _symmetry_equiv_pos_site_id
 _symmetry_equiv_pos_as_xyz
  1  'x, y, z'
loop_
 _atom_site_type_symbol
 _atom_site_label
 _atom_site_symmetry_multiplicity
 _atom_site_fract_x
 _atom_site_fract_y
 _atom_site_fract_z
 _atom_site_occupancy
  Tm  Tm0  1  0.00000000  0.00000000  0.00000000  1.0
  Mn  Mn1  1  0.50000000  1.00000000  0.50000000  1.0
  Mn  Mn2  1  0.00000000  1.00000000  0.50000000  1.0
  Mn  Mn3  1  0.50000000  0.50000000  0.00000000  1.0
  Mn  Mn4  1  1.00000000  0.50000000  1.00000000  1.0
  Mn  Mn5  1  0.50000000  0.23613300  0.76386700  1.0
  Mn  Mn6  1  0.50000000  0.76386700  0.23613300  1.0
  Al  Al7  1  0.34606500  0.65393500  0.65393500  1.0
  Al  Al8  1  0.65393500  0.34606500  0.34606500  1.0
  Al  Al9  1  0.00000000  0.66328300  0.33671700  1.0
  Al  Al10  1  0.00000000  0.33671700  0.66328300  1.0
  Al  Al11  1  0.30547700  0.19452300  0.19452300  1.0
  Al  Al12  1  0.69452300  0.80547700  0.80547700  1.0
