# generated using pymatgen
data_Tm12Co5Bi
_symmetry_space_group_name_H-M   'P 1'
_cell_length_a   8.19306642
_cell_length_b   8.19306642
_cell_length_c   8.19306642
_cell_angle_alpha   73.38136146
_cell_angle_beta   69.01422380
_cell_angle_gamma   110.84638946
_symmetry_Int_Tables_number   1
_chemical_formula_structural   Tm12Co5Bi
_chemical_formula_sum   'Tm12 Co5 Bi1'
_cell_volume   422.58475817
_cell_formula_units_Z   1
loop_
 _symmetry_equiv_pos_site_id
 _symmetry_equiv_pos_as_xyz
  1  'x, y, z'
loop_
 _atom_site_type_symbol
 _atom_site_label
 _atom_site_symmetry_multiplicity
 _atom_site_fract_x
 _atom_site_fract_y
 _atom_site_fract_z
 _atom_site_occupancy
  Tm  Tm0  1  0.46704100  0.28448500  0.81744400  1.0
  Tm  Tm1  1  0.53295900  0.71551500  0.18255600  1.0
  Tm  Tm2  1  0.10192800  0.28448400  0.18255700  1.0
  Tm  Tm3  1  0.89807200  0.71551600  0.81744300  1.0
  Tm  Tm4  1  0.30780300  0.99648300  0.31132000  1.0
  Tm  Tm5  1  0.69219700  0.00351700  0.68868000  1.0
  Tm  Tm6  1  0.69219700  0.38087700  0.31132000  1.0
  Tm  Tm7  1  0.30780300  0.61912300  0.68868000  1.0
  Tm  Tm8  1  0.19648000  0.78878600  0.01473500  1.0
  Tm  Tm9  1  0.80352000  0.21121400  0.98526500  1.0
  Tm  Tm10  1  0.80352000  0.78878500  0.40769500  1.0
  Tm  Tm11  1  0.19648000  0.21121500  0.59230500  1.0
  Co  Co12  1  0.37480800  0.00000000  0.62519200  1.0
  Co  Co13  1  0.62519200  0.00000000  0.37480800  1.0
  Co  Co14  1  0.50000000  0.61198200  0.88801800  1.0
  Co  Co15  1  0.50000000  0.38801800  0.11198200  1.0
  Co  Co16  1  0.00000000  0.00000000  0.00000000  1.0
  Bi  Bi17  1  1.00000000  0.50000000  0.50000000  1.0
