# generated using pymatgen
data_Tm2CdSe4
_symmetry_space_group_name_H-M   'P 1'
_cell_length_a   8.27456214
_cell_length_b   8.27456214
_cell_length_c   8.27456214
_cell_angle_alpha   60.00000000
_cell_angle_beta   60.00000000
_cell_angle_gamma   60.00000000
_symmetry_Int_Tables_number   1
_chemical_formula_structural   Tm2CdSe4
_chemical_formula_sum   'Tm4 Cd2 Se8'
_cell_volume   400.60841481
_cell_formula_units_Z   2
loop_
 _symmetry_equiv_pos_site_id
 _symmetry_equiv_pos_as_xyz
  1  'x, y, z'
loop_
 _atom_site_type_symbol
 _atom_site_label
 _atom_site_symmetry_multiplicity
 _atom_site_fract_x
 _atom_site_fract_y
 _atom_site_fract_z
 _atom_site_occupancy
  Tm  Tm0  1  0.87500000  0.37500000  0.87500000  1.0
  Tm  Tm1  1  0.87500000  0.87500000  0.87500000  1.0
  Tm  Tm2  1  0.87500000  0.87500000  0.37500000  1.0
  Tm  Tm3  1  0.37500000  0.87500000  0.87500000  1.0
  Cd  Cd4  1  0.25000000  0.25000000  0.25000000  1.0
  Cd  Cd5  1  0.50000000  0.50000000  0.50000000  1.0
  Se  Se6  1  0.11716800  0.11716700  0.11716700  1.0
  Se  Se7  1  0.63283200  0.10150200  0.63283300  1.0
  Se  Se8  1  0.10150100  0.63283300  0.63283300  1.0
  Se  Se9  1  0.63283200  0.63283300  0.10150200  1.0
  Se  Se10  1  0.64849900  0.11716700  0.11716700  1.0
  Se  Se11  1  0.11716800  0.11716700  0.64849800  1.0
  Se  Se12  1  0.63283200  0.63283300  0.63283300  1.0
  Se  Se13  1  0.11716800  0.64849800  0.11716700  1.0
