# generated using pymatgen
data_Tm2Mg
_symmetry_space_group_name_H-M   'P 1'
_cell_length_a   3.58360800
_cell_length_b   5.40254600
_cell_length_c   8.77435559
_cell_angle_alpha   90.00000000
_cell_angle_beta   101.78320939
_cell_angle_gamma   90.00000000
_symmetry_Int_Tables_number   1
_chemical_formula_structural   Tm2Mg
_chemical_formula_sum   'Tm4 Mg2'
_cell_volume   166.29708269
_cell_formula_units_Z   2
loop_
 _symmetry_equiv_pos_site_id
 _symmetry_equiv_pos_as_xyz
  1  'x, y, z'
loop_
 _atom_site_type_symbol
 _atom_site_label
 _atom_site_symmetry_multiplicity
 _atom_site_fract_x
 _atom_site_fract_y
 _atom_site_fract_z
 _atom_site_occupancy
  Tm  Tm0  1  0.09752800  0.25000000  0.19505600  1.0
  Tm  Tm1  1  0.77407500  0.25000000  0.54815000  1.0
  Tm  Tm2  1  0.90247200  0.75000000  0.80494400  1.0
  Tm  Tm3  1  0.22592500  0.75000000  0.45185000  1.0
  Mg  Mg4  1  0.43726800  0.25000000  0.87453600  1.0
  Mg  Mg5  1  0.56273200  0.75000000  0.12546400  1.0
