# generated using pymatgen
data_Tm2MgS4
_symmetry_space_group_name_H-M   'P 1'
_cell_length_a   7.83322286
_cell_length_b   7.83322286
_cell_length_c   7.83322286
_cell_angle_alpha   60.00000000
_cell_angle_beta   60.00000000
_cell_angle_gamma   60.00000000
_symmetry_Int_Tables_number   1
_chemical_formula_structural   Tm2MgS4
_chemical_formula_sum   'Tm4 Mg2 S8'
_cell_volume   339.86500612
_cell_formula_units_Z   2
loop_
 _symmetry_equiv_pos_site_id
 _symmetry_equiv_pos_as_xyz
  1  'x, y, z'
loop_
 _atom_site_type_symbol
 _atom_site_label
 _atom_site_symmetry_multiplicity
 _atom_site_fract_x
 _atom_site_fract_y
 _atom_site_fract_z
 _atom_site_occupancy
  Tm  Tm0  1  0.37500000  0.37500000  0.37500000  1.0
  Tm  Tm1  1  0.37500000  0.87500000  0.37500000  1.0
  Tm  Tm2  1  0.37500000  0.37500000  0.87500000  1.0
  Tm  Tm3  1  0.87500000  0.37500000  0.37500000  1.0
  Mg  Mg4  1  0.00000000  0.00000000  0.00000000  1.0
  Mg  Mg5  1  0.75000000  0.75000000  0.75000000  1.0
  S  S6  1  0.14101400  0.61966200  0.61966200  1.0
  S  S7  1  0.61966200  0.61966200  0.14101400  1.0
  S  S8  1  0.61966200  0.61966200  0.61966200  1.0
  S  S9  1  0.61966200  0.14101400  0.61966200  1.0
  S  S10  1  0.13033800  0.60898600  0.13033800  1.0
  S  S11  1  0.13033800  0.13033800  0.13033800  1.0
  S  S12  1  0.13033800  0.13033800  0.60898600  1.0
  S  S13  1  0.60898600  0.13033800  0.13033800  1.0
