# generated using pymatgen
data_Tm2Te3
_symmetry_space_group_name_H-M   'P 1'
_cell_length_a   7.46242485
_cell_length_b   7.46242485
_cell_length_c   13.73155876
_cell_angle_alpha   100.48290892
_cell_angle_beta   100.48290894
_cell_angle_gamma   109.29418799
_symmetry_Int_Tables_number   1
_chemical_formula_structural   Tm2Te3
_chemical_formula_sum   'Tm8 Te12'
_cell_volume   685.12173517
_cell_formula_units_Z   4
loop_
 _symmetry_equiv_pos_site_id
 _symmetry_equiv_pos_as_xyz
  1  'x, y, z'
loop_
 _atom_site_type_symbol
 _atom_site_label
 _atom_site_symmetry_multiplicity
 _atom_site_fract_x
 _atom_site_fract_y
 _atom_site_fract_z
 _atom_site_occupancy
  Tm  Tm0  1  0.33262000  0.83262000  0.66524000  1.0
  Tm  Tm1  1  0.16738000  0.66738000  0.33476000  1.0
  Tm  Tm2  1  0.91738000  0.91738000  0.83476000  1.0
  Tm  Tm3  1  0.08262000  0.08262000  0.16524000  1.0
  Tm  Tm4  1  0.99994200  0.49994200  0.99988400  1.0
  Tm  Tm5  1  0.50005800  0.00005800  0.00011600  1.0
  Tm  Tm6  1  0.25005800  0.25005800  0.50011600  1.0
  Tm  Tm7  1  0.74994200  0.74994200  0.49988400  1.0
  Te  Te8  1  0.99771500  0.49771500  0.50000000  1.0
  Te  Te9  1  0.50228500  0.00228500  0.50000000  1.0
  Te  Te10  1  0.25228500  0.25228500  0.00000000  1.0
  Te  Te11  1  0.74771500  0.74771500  0.00000000  1.0
  Te  Te12  1  0.66603800  0.16669200  0.83430600  1.0
  Te  Te13  1  0.83330800  0.33396200  0.16569400  1.0
  Te  Te14  1  0.33238600  0.83173200  0.16569400  1.0
  Te  Te15  1  0.16826800  0.66761400  0.83430600  1.0
  Te  Te16  1  0.58396200  0.58330800  0.66569400  1.0
  Te  Te17  1  0.41669200  0.41603800  0.33430600  1.0
  Te  Te18  1  0.91761400  0.91826800  0.33430600  1.0
  Te  Te19  1  0.08173200  0.08238600  0.66569400  1.0
