# generated using pymatgen
data_Tm3Os
_symmetry_space_group_name_H-M   'P 1'
_cell_length_a   6.21901900
_cell_length_b   7.33738300
_cell_length_c   8.92905400
_cell_angle_alpha   90.00000000
_cell_angle_beta   90.00000000
_cell_angle_gamma   90.00000000
_symmetry_Int_Tables_number   1
_chemical_formula_structural   Tm3Os
_chemical_formula_sum   'Tm12 Os4'
_cell_volume   407.44455865
_cell_formula_units_Z   4
loop_
 _symmetry_equiv_pos_site_id
 _symmetry_equiv_pos_as_xyz
  1  'x, y, z'
loop_
 _atom_site_type_symbol
 _atom_site_label
 _atom_site_symmetry_multiplicity
 _atom_site_fract_x
 _atom_site_fract_y
 _atom_site_fract_z
 _atom_site_occupancy
  Tm  Tm0  1  0.63187800  0.04027400  0.25000000  1.0
  Tm  Tm1  1  0.36812200  0.95972600  0.75000000  1.0
  Tm  Tm2  1  0.13187800  0.45972600  0.75000000  1.0
  Tm  Tm3  1  0.86812200  0.54027400  0.25000000  1.0
  Tm  Tm4  1  0.16752600  0.17504000  0.06230400  1.0
  Tm  Tm5  1  0.83247400  0.82496000  0.93769600  1.0
  Tm  Tm6  1  0.66752600  0.32496000  0.93769600  1.0
  Tm  Tm7  1  0.83247400  0.82496000  0.56230400  1.0
  Tm  Tm8  1  0.33247400  0.67504000  0.06230400  1.0
  Tm  Tm9  1  0.16752600  0.17504000  0.43769600  1.0
  Tm  Tm10  1  0.33247400  0.67504000  0.43769600  1.0
  Tm  Tm11  1  0.66752600  0.32496000  0.56230400  1.0
  Os  Os12  1  0.46057600  0.38272500  0.25000000  1.0
  Os  Os13  1  0.53942400  0.61727500  0.75000000  1.0
  Os  Os14  1  0.96057600  0.11727500  0.75000000  1.0
  Os  Os15  1  0.03942400  0.88272500  0.25000000  1.0
