# generated using pymatgen
data_Tm3Sc
_symmetry_space_group_name_H-M   'P 1'
_cell_length_a   5.46067400
_cell_length_b   6.98791800
_cell_length_c   6.98791843
_cell_angle_alpha   60.00000202
_cell_angle_beta   90.00000000
_cell_angle_gamma   90.00000000
_symmetry_Int_Tables_number   1
_chemical_formula_structural   Tm3Sc
_chemical_formula_sum   'Tm6 Sc2'
_cell_volume   230.92583240
_cell_formula_units_Z   2
loop_
 _symmetry_equiv_pos_site_id
 _symmetry_equiv_pos_as_xyz
  1  'x, y, z'
loop_
 _atom_site_type_symbol
 _atom_site_label
 _atom_site_symmetry_multiplicity
 _atom_site_fract_x
 _atom_site_fract_y
 _atom_site_fract_z
 _atom_site_occupancy
  Tm  Tm0  1  0.75000000  0.16852700  0.66294600  1.0
  Tm  Tm1  1  0.75000000  0.16852700  0.16852800  1.0
  Tm  Tm2  1  0.75000000  0.66294500  0.16852800  1.0
  Tm  Tm3  1  0.25000000  0.83147300  0.33705400  1.0
  Tm  Tm4  1  0.25000000  0.83147300  0.83147200  1.0
  Tm  Tm5  1  0.25000000  0.33705500  0.83147200  1.0
  Sc  Sc6  1  0.25000000  0.33333333  0.33333333  1.0
  Sc  Sc7  1  0.75000000  0.66666667  0.66666667  1.0
