# generated using pymatgen
data_Tm4CdSe7
_symmetry_space_group_name_H-M   'P 1'
_cell_length_a   3.95123800
_cell_length_b   6.88814338
_cell_length_c   12.06462874
_cell_angle_alpha   104.15175951
_cell_angle_beta   90.00000000
_cell_angle_gamma   106.66733708
_symmetry_Int_Tables_number   1
_chemical_formula_structural   Tm4CdSe7
_chemical_formula_sum   'Tm4 Cd1 Se7'
_cell_volume   304.14680177
_cell_formula_units_Z   1
loop_
 _symmetry_equiv_pos_site_id
 _symmetry_equiv_pos_as_xyz
  1  'x, y, z'
loop_
 _atom_site_type_symbol
 _atom_site_label
 _atom_site_symmetry_multiplicity
 _atom_site_fract_x
 _atom_site_fract_y
 _atom_site_fract_z
 _atom_site_occupancy
  Tm  Tm0  1  0.30539300  0.61078600  0.19775200  1.0
  Tm  Tm1  1  0.69389200  0.38778400  0.80508500  1.0
  Tm  Tm2  1  0.99988800  0.99977600  0.00192800  1.0
  Tm  Tm3  1  0.88467000  0.76934000  0.57215000  1.0
  Cd  Cd4  1  0.11585200  0.23170400  0.42122200  1.0
  Se  Se5  1  0.25825100  0.51650200  0.64784300  1.0
  Se  Se6  1  0.74367600  0.48735200  0.35118600  1.0
  Se  Se7  1  0.65983400  0.31966800  0.04862000  1.0
  Se  Se8  1  0.33982900  0.67965800  0.94923200  1.0
  Se  Se9  1  0.96108000  0.92216000  0.21654600  1.0
  Se  Se10  1  0.03857100  0.07714200  0.78543000  1.0
  Se  Se11  1  0.49906400  0.99812800  0.50300800  1.0
