# generated using pymatgen
data_TmAlCu
_symmetry_space_group_name_H-M   'P 1'
_cell_length_a   5.33317659
_cell_length_b   5.33317659
_cell_length_c   5.33317659
_cell_angle_alpha   89.07464665
_cell_angle_beta   60.47695407
_cell_angle_gamma   119.41137047
_symmetry_Int_Tables_number   1
_chemical_formula_structural   TmAlCu
_chemical_formula_sum   'Tm2 Al2 Cu2'
_cell_volume   108.10966110
_cell_formula_units_Z   2
loop_
 _symmetry_equiv_pos_site_id
 _symmetry_equiv_pos_as_xyz
  1  'x, y, z'
loop_
 _atom_site_type_symbol
 _atom_site_label
 _atom_site_symmetry_multiplicity
 _atom_site_fract_x
 _atom_site_fract_y
 _atom_site_fract_z
 _atom_site_occupancy
  Tm  Tm0  1  0.25000000  0.37486300  0.87513700  1.0
  Tm  Tm1  1  0.75000000  0.62513700  0.12486300  1.0
  Al  Al2  1  0.50000000  0.00000000  0.50000000  1.0
  Al  Al3  1  1.00000000  0.50000000  0.50000000  1.0
  Cu  Cu4  1  0.00000000  0.00000000  0.50000000  1.0
  Cu  Cu5  1  0.50000000  0.00000000  0.00000000  1.0
