# generated using pymatgen
data_TmAlSi
_symmetry_space_group_name_H-M   'P 1'
_cell_length_a   3.98991400
_cell_length_b   5.45480234
_cell_length_c   5.64328800
_cell_angle_alpha   90.00000000
_cell_angle_beta   90.00000000
_cell_angle_gamma   111.45220063
_symmetry_Int_Tables_number   1
_chemical_formula_structural   TmAlSi
_chemical_formula_sum   'Tm2 Al2 Si2'
_cell_volume   114.31289249
_cell_formula_units_Z   2
loop_
 _symmetry_equiv_pos_site_id
 _symmetry_equiv_pos_as_xyz
  1  'x, y, z'
loop_
 _atom_site_type_symbol
 _atom_site_label
 _atom_site_symmetry_multiplicity
 _atom_site_fract_x
 _atom_site_fract_y
 _atom_site_fract_z
 _atom_site_occupancy
  Tm  Tm0  1  0.30572800  0.61145600  0.25000000  1.0
  Tm  Tm1  1  0.69427200  0.38854400  0.75000000  1.0
  Al  Al2  1  0.00000000  0.00000000  0.00000000  1.0
  Al  Al3  1  0.00000000  0.00000000  0.50000000  1.0
  Si  Si4  1  0.60168600  0.20337200  0.25000000  1.0
  Si  Si5  1  0.39831400  0.79662800  0.75000000  1.0
