# generated using pymatgen
data_TmAlCu4
_symmetry_space_group_name_H-M   'P 1'
_cell_length_a   4.03332000
_cell_length_b   5.11309400
_cell_length_c   5.11309374
_cell_angle_alpha   120.00000166
_cell_angle_beta   90.00000000
_cell_angle_gamma   90.00000000
_symmetry_Int_Tables_number   1
_chemical_formula_structural   TmAlCu4
_chemical_formula_sum   'Tm1 Al1 Cu4'
_cell_volume   91.31893457
_cell_formula_units_Z   1
loop_
 _symmetry_equiv_pos_site_id
 _symmetry_equiv_pos_as_xyz
  1  'x, y, z'
loop_
 _atom_site_type_symbol
 _atom_site_label
 _atom_site_symmetry_multiplicity
 _atom_site_fract_x
 _atom_site_fract_y
 _atom_site_fract_z
 _atom_site_occupancy
  Tm  Tm0  1  0.00000000  0.66666667  0.33333333  1.0
  Al  Al1  1  1.00000000  0.33333333  0.66666667  1.0
  Cu  Cu2  1  0.00000000  0.00000000  0.00000000  1.0
  Cu  Cu3  1  0.50000000  0.66810400  0.83405200  1.0
  Cu  Cu4  1  0.50000000  0.16594800  0.33189600  1.0
  Cu  Cu5  1  0.50000000  0.16594800  0.83405200  1.0
