# generated using pymatgen
data_TmCuPbSe3
_symmetry_space_group_name_H-M   'P 1'
_cell_length_a   4.04704400
_cell_length_b   7.09210038
_cell_length_c   10.54784200
_cell_angle_alpha   90.00000000
_cell_angle_beta   90.00000000
_cell_angle_gamma   106.57801051
_symmetry_Int_Tables_number   1
_chemical_formula_structural   TmCuPbSe3
_chemical_formula_sum   'Tm2 Cu2 Pb2 Se6'
_cell_volume   290.16016415
_cell_formula_units_Z   2
loop_
 _symmetry_equiv_pos_site_id
 _symmetry_equiv_pos_as_xyz
  1  'x, y, z'
loop_
 _atom_site_type_symbol
 _atom_site_label
 _atom_site_symmetry_multiplicity
 _atom_site_fract_x
 _atom_site_fract_y
 _atom_site_fract_z
 _atom_site_occupancy
  Tm  Tm0  1  0.50079200  0.00158400  0.50256100  1.0
  Tm  Tm1  1  0.49920800  0.99841600  0.00256100  1.0
  Cu  Cu2  1  0.96608500  0.93217000  0.75477600  1.0
  Cu  Cu3  1  0.03391500  0.06783000  0.25477600  1.0
  Pb  Pb4  1  0.74283900  0.48567800  0.24344400  1.0
  Pb  Pb5  1  0.25716100  0.51432200  0.74344400  1.0
  Se  Se6  1  0.85867200  0.71734400  0.56815800  1.0
  Se  Se7  1  0.85832800  0.71665600  0.94324700  1.0
  Se  Se8  1  0.14132800  0.28265600  0.06815800  1.0
  Se  Se9  1  0.14167200  0.28334400  0.44324700  1.0
  Se  Se10  1  0.57639500  0.15279000  0.75299200  1.0
  Se  Se11  1  0.42360500  0.84721000  0.25299200  1.0
