# generated using pymatgen
data_TmGa4Ni
_symmetry_space_group_name_H-M   'P 1'
_cell_length_a   4.10687000
_cell_length_b   6.59365500
_cell_length_c   7.84754997
_cell_angle_alpha   90.00000000
_cell_angle_beta   105.16892446
_cell_angle_gamma   90.00000000
_symmetry_Int_Tables_number   1
_chemical_formula_structural   TmGa4Ni
_chemical_formula_sum   'Tm2 Ga8 Ni2'
_cell_volume   205.10201653
_cell_formula_units_Z   2
loop_
 _symmetry_equiv_pos_site_id
 _symmetry_equiv_pos_as_xyz
  1  'x, y, z'
loop_
 _atom_site_type_symbol
 _atom_site_label
 _atom_site_symmetry_multiplicity
 _atom_site_fract_x
 _atom_site_fract_y
 _atom_site_fract_z
 _atom_site_occupancy
  Tm  Tm0  1  0.88020600  0.75000000  0.76041200  1.0
  Tm  Tm1  1  0.11979400  0.25000000  0.23958800  1.0
  Ga  Ga2  1  0.50000000  0.00000000  0.00000000  1.0
  Ga  Ga3  1  0.50000000  0.50000000  0.00000000  1.0
  Ga  Ga4  1  0.07067500  0.75000000  0.14135000  1.0
  Ga  Ga5  1  0.92932500  0.25000000  0.85865000  1.0
  Ga  Ga6  1  0.68478000  0.94895300  0.36956000  1.0
  Ga  Ga7  1  0.31522000  0.05104700  0.63044000  1.0
  Ga  Ga8  1  0.68478000  0.55104700  0.36956000  1.0
  Ga  Ga9  1  0.31522000  0.44895300  0.63044000  1.0
  Ni  Ni10  1  0.22559000  0.75000000  0.45118000  1.0
  Ni  Ni11  1  0.77441000  0.25000000  0.54882000  1.0
