# generated using pymatgen
data_TmRe2
_symmetry_space_group_name_H-M   'P 1'
_cell_length_a   5.40472016
_cell_length_b   5.40472016
_cell_length_c   8.76124700
_cell_angle_alpha   90.00000000
_cell_angle_beta   90.00000000
_cell_angle_gamma   120.00000194
_symmetry_Int_Tables_number   1
_chemical_formula_structural   TmRe2
_chemical_formula_sum   'Tm4 Re8'
_cell_volume   221.63736186
_cell_formula_units_Z   4
loop_
 _symmetry_equiv_pos_site_id
 _symmetry_equiv_pos_as_xyz
  1  'x, y, z'
loop_
 _atom_site_type_symbol
 _atom_site_label
 _atom_site_symmetry_multiplicity
 _atom_site_fract_x
 _atom_site_fract_y
 _atom_site_fract_z
 _atom_site_occupancy
  Tm  Tm0  1  0.66666667  0.33333333  0.56294700  1.0
  Tm  Tm1  1  0.33333333  0.66666667  0.43705300  1.0
  Tm  Tm2  1  0.33333333  0.66666667  0.06294700  1.0
  Tm  Tm3  1  0.66666667  0.33333333  0.93705300  1.0
  Re  Re4  1  0.00000000  0.00000000  0.50000000  1.0
  Re  Re5  1  0.00000000  0.00000000  0.00000000  1.0
  Re  Re6  1  0.17185600  0.34371200  0.75000000  1.0
  Re  Re7  1  0.17185600  0.82814300  0.75000000  1.0
  Re  Re8  1  0.65628700  0.82814300  0.75000000  1.0
  Re  Re9  1  0.82814400  0.65628800  0.25000000  1.0
  Re  Re10  1  0.82814400  0.17185700  0.25000000  1.0
  Re  Re11  1  0.34371300  0.17185700  0.25000000  1.0
