# generated using pymatgen
data_TmSnPt
_symmetry_space_group_name_H-M   'P 1'
_cell_length_a   3.96246300
_cell_length_b   7.49578200
_cell_length_c   7.49578232
_cell_angle_alpha   119.99999860
_cell_angle_beta   90.00000000
_cell_angle_gamma   90.00000000
_symmetry_Int_Tables_number   1
_chemical_formula_structural   TmSnPt
_chemical_formula_sum   'Tm3 Sn3 Pt3'
_cell_volume   192.81009625
_cell_formula_units_Z   3
loop_
 _symmetry_equiv_pos_site_id
 _symmetry_equiv_pos_as_xyz
  1  'x, y, z'
loop_
 _atom_site_type_symbol
 _atom_site_label
 _atom_site_symmetry_multiplicity
 _atom_site_fract_x
 _atom_site_fract_y
 _atom_site_fract_z
 _atom_site_occupancy
  Tm  Tm0  1  0.00000000  1.00000000  0.40471000  1.0
  Tm  Tm1  1  1.00000000  0.40471000  0.00000000  1.0
  Tm  Tm2  1  1.00000000  0.59529000  0.59529000  1.0
  Sn  Sn3  1  0.50000000  0.00000000  0.74007100  1.0
  Sn  Sn4  1  0.50000000  0.74007100  0.00000000  1.0
  Sn  Sn5  1  0.50000000  0.25992900  0.25992900  1.0
  Pt  Pt6  1  0.50000000  0.66666667  0.33333333  1.0
  Pt  Pt7  1  0.50000000  0.33333333  0.66666667  1.0
  Pt  Pt8  1  0.00000000  0.00000000  0.00000000  1.0
