# generated using pymatgen
data_U2Cl5O2
_symmetry_space_group_name_H-M   'P 1'
_cell_length_a   4.13086100
_cell_length_b   8.11159119
_cell_length_c   8.11159119
_cell_angle_alpha   116.87211034
_cell_angle_beta   90.00000000
_cell_angle_gamma   90.00000000
_symmetry_Int_Tables_number   1
_chemical_formula_structural   U2Cl5O2
_chemical_formula_sum   'U2 Cl5 O2'
_cell_volume   242.45220651
_cell_formula_units_Z   1
loop_
 _symmetry_equiv_pos_site_id
 _symmetry_equiv_pos_as_xyz
  1  'x, y, z'
loop_
 _atom_site_type_symbol
 _atom_site_label
 _atom_site_symmetry_multiplicity
 _atom_site_fract_x
 _atom_site_fract_y
 _atom_site_fract_z
 _atom_site_occupancy
  U  U0  1  0.00000000  0.79973100  0.20026900  1.0
  U  U1  1  0.00000000  0.20026900  0.79973100  1.0
  Cl  Cl2  1  0.00000000  0.54981400  0.82896800  1.0
  Cl  Cl3  1  1.00000000  0.45018600  0.17103200  1.0
  Cl  Cl4  1  0.00000000  0.00000000  0.00000000  1.0
  Cl  Cl5  1  0.00000000  0.82896800  0.54981400  1.0
  Cl  Cl6  1  1.00000000  0.17103200  0.45018600  1.0
  O  O7  1  0.50000000  0.79936400  0.20063600  1.0
  O  O8  1  0.50000000  0.20063600  0.79936400  1.0
