# generated using pymatgen
data_U6O11
_symmetry_space_group_name_H-M   'P 1'
_cell_length_a   6.66172553
_cell_length_b   6.66172553
_cell_length_c   6.66442667
_cell_angle_alpha   99.58904085
_cell_angle_beta   99.58904085
_cell_angle_gamma   119.98821651
_symmetry_Int_Tables_number   1
_chemical_formula_structural   U6O11
_chemical_formula_sum   'U6 O11'
_cell_volume   241.53496897
_cell_formula_units_Z   1
loop_
 _symmetry_equiv_pos_site_id
 _symmetry_equiv_pos_as_xyz
  1  'x, y, z'
loop_
 _atom_site_type_symbol
 _atom_site_label
 _atom_site_symmetry_multiplicity
 _atom_site_fract_x
 _atom_site_fract_y
 _atom_site_fract_z
 _atom_site_occupancy
  U  U0  1  0.83335300  0.16565900  0.49762400  1.0
  U  U1  1  0.16565900  0.83335300  0.49762400  1.0
  U  U2  1  0.68172800  0.33038400  0.99660500  1.0
  U  U3  1  0.98515500  0.98515500  0.99608900  1.0
  U  U4  1  0.50383400  0.50383400  0.51458300  1.0
  U  U5  1  0.33038400  0.68172800  0.99660500  1.0
  O  O6  1  0.54618200  0.20273300  0.62496900  1.0
  O  O7  1  0.97689900  0.29578000  0.88688600  1.0
  O  O8  1  0.29578000  0.97689900  0.88688600  1.0
  O  O9  1  0.20273300  0.54618200  0.62496900  1.0
  O  O10  1  0.13729000  0.13729000  0.36530800  1.0
  O  O11  1  0.70899100  0.04101800  0.12555500  1.0
  O  O12  1  0.77249700  0.45411500  0.36347500  1.0
  O  O13  1  0.61373900  0.61373900  0.88381200  1.0
  O  O14  1  0.45411500  0.77249700  0.36347500  1.0
  O  O15  1  0.04101800  0.70899100  0.12555500  1.0
  O  O16  1  0.87564100  0.87564100  0.62498300  1.0
