# generated using pymatgen
data_UGaAu
_symmetry_space_group_name_H-M   'P 1'
_cell_length_a   4.86137600
_cell_length_b   5.66354062
_cell_length_c   5.66630190
_cell_angle_alpha   61.16051525
_cell_angle_beta   64.59762648
_cell_angle_gamma   64.58435992
_symmetry_Int_Tables_number   1
_chemical_formula_structural   UGaAu
_chemical_formula_sum   'U2 Ga2 Au2'
_cell_volume   118.47654954
_cell_formula_units_Z   2
loop_
 _symmetry_equiv_pos_site_id
 _symmetry_equiv_pos_as_xyz
  1  'x, y, z'
loop_
 _atom_site_type_symbol
 _atom_site_label
 _atom_site_symmetry_multiplicity
 _atom_site_fract_x
 _atom_site_fract_y
 _atom_site_fract_z
 _atom_site_occupancy
  U  U0  1  0.49834200  0.73962300  0.26369400  1.0
  U  U1  1  0.50165800  0.26037700  0.73630600  1.0
  Ga  Ga2  1  0.16093600  0.83583800  0.84229000  1.0
  Ga  Ga3  1  0.83906500  0.16416200  0.15770900  1.0
  Au  Au4  1  0.82573400  0.67287900  0.67565200  1.0
  Au  Au5  1  0.17426600  0.32712100  0.32434800  1.0
