# generated using pymatgen
data_UGaRu
_symmetry_space_group_name_H-M   'P 1'
_cell_length_a   4.11404400
_cell_length_b   6.81748800
_cell_length_c   6.81748731
_cell_angle_alpha   120.00000335
_cell_angle_beta   90.00000000
_cell_angle_gamma   90.00000000
_symmetry_Int_Tables_number   1
_chemical_formula_structural   UGaRu
_chemical_formula_sum   'U3 Ga3 Ru3'
_cell_volume   165.59540044
_cell_formula_units_Z   3
loop_
 _symmetry_equiv_pos_site_id
 _symmetry_equiv_pos_as_xyz
  1  'x, y, z'
loop_
 _atom_site_type_symbol
 _atom_site_label
 _atom_site_symmetry_multiplicity
 _atom_site_fract_x
 _atom_site_fract_y
 _atom_site_fract_z
 _atom_site_occupancy
  U  U0  1  0.50000000  0.57624100  0.57624100  1.0
  U  U1  1  0.50000000  0.00000000  0.42375900  1.0
  U  U2  1  0.50000000  0.42375900  0.00000000  1.0
  Ga  Ga3  1  1.00000000  0.23790700  0.23790700  1.0
  Ga  Ga4  1  1.00000000  0.00000000  0.76209300  1.0
  Ga  Ga5  1  0.00000000  0.76209300  0.00000000  1.0
  Ru  Ru6  1  1.00000000  0.66666667  0.33333333  1.0
  Ru  Ru7  1  1.00000000  0.33333333  0.66666667  1.0
  Ru  Ru8  1  0.50000000  0.00000000  0.00000000  1.0
