# generated using pymatgen
data_USiSe
_symmetry_space_group_name_H-M   'P 1'
_cell_length_a   3.88419000
_cell_length_b   3.88419000
_cell_length_c   8.73914415
_cell_angle_alpha   102.84001183
_cell_angle_beta   102.84001182
_cell_angle_gamma   90.00000002
_symmetry_Int_Tables_number   1
_chemical_formula_structural   USiSe
_chemical_formula_sum   'U2 Si2 Se2'
_cell_volume   125.16624182
_cell_formula_units_Z   2
loop_
 _symmetry_equiv_pos_site_id
 _symmetry_equiv_pos_as_xyz
  1  'x, y, z'
loop_
 _atom_site_type_symbol
 _atom_site_label
 _atom_site_symmetry_multiplicity
 _atom_site_fract_x
 _atom_site_fract_y
 _atom_site_fract_z
 _atom_site_occupancy
  U  U0  1  0.86791600  0.86791600  0.73583200  1.0
  U  U1  1  0.13208400  0.13208400  0.26416800  1.0
  Si  Si2  1  1.00000000  0.50000000  0.00000000  1.0
  Si  Si3  1  0.50000000  0.00000000  0.00000000  1.0
  Se  Se4  1  0.68408100  0.68408100  0.36816200  1.0
  Se  Se5  1  0.31591900  0.31591900  0.63183800  1.0
