# generated using pymatgen
data_USnRu
_symmetry_space_group_name_H-M   'P 1'
_cell_length_a   4.05390800
_cell_length_b   7.30652400
_cell_length_c   7.30652366
_cell_angle_alpha   120.00000156
_cell_angle_beta   90.00000000
_cell_angle_gamma   90.00000000
_symmetry_Int_Tables_number   1
_chemical_formula_structural   USnRu
_chemical_formula_sum   'U3 Sn3 Ru3'
_cell_volume   187.42439766
_cell_formula_units_Z   3
loop_
 _symmetry_equiv_pos_site_id
 _symmetry_equiv_pos_as_xyz
  1  'x, y, z'
loop_
 _atom_site_type_symbol
 _atom_site_label
 _atom_site_symmetry_multiplicity
 _atom_site_fract_x
 _atom_site_fract_y
 _atom_site_fract_z
 _atom_site_occupancy
  U  U0  1  0.50000000  0.00000000  0.41652500  1.0
  U  U1  1  0.50000000  0.41652500  1.00000000  1.0
  U  U2  1  0.50000000  0.58347500  0.58347500  1.0
  Sn  Sn3  1  1.00000000  0.00000000  0.74826400  1.0
  Sn  Sn4  1  0.00000000  0.74826400  1.00000000  1.0
  Sn  Sn5  1  0.00000000  0.25173600  0.25173600  1.0
  Ru  Ru6  1  1.00000000  0.66666667  0.33333333  1.0
  Ru  Ru7  1  0.00000000  0.33333333  0.66666667  1.0
  Ru  Ru8  1  0.50000000  0.00000000  0.00000000  1.0
