# generated using pymatgen
data_V2CrSe4
_symmetry_space_group_name_H-M   'P 1'
_cell_length_a   3.42016400
_cell_length_b   6.25971608
_cell_length_c   6.83826071
_cell_angle_alpha   115.11378489
_cell_angle_beta   104.48198455
_cell_angle_gamma   90.00000000
_symmetry_Int_Tables_number   1
_chemical_formula_structural   V2CrSe4
_chemical_formula_sum   'V2 Cr1 Se4'
_cell_volume   127.40615966
_cell_formula_units_Z   1
loop_
 _symmetry_equiv_pos_site_id
 _symmetry_equiv_pos_as_xyz
  1  'x, y, z'
loop_
 _atom_site_type_symbol
 _atom_site_label
 _atom_site_symmetry_multiplicity
 _atom_site_fract_x
 _atom_site_fract_y
 _atom_site_fract_z
 _atom_site_occupancy
  V  V0  1  0.25444700  0.31371700  0.50889400  1.0
  V  V1  1  0.74555300  0.68628300  0.49110600  1.0
  Cr  Cr2  1  0.00000000  0.00000000  0.00000000  1.0
  Se  Se3  1  0.10804800  0.45127400  0.21609600  1.0
  Se  Se4  1  0.89195200  0.54872600  0.78390400  1.0
  Se  Se5  1  0.35936500  0.02125400  0.71873000  1.0
  Se  Se6  1  0.64063500  0.97874600  0.28127000  1.0
