# generated using pymatgen
data_V2O2F3
_symmetry_space_group_name_H-M   'P 1'
_cell_length_a   5.13322400
_cell_length_b   5.60216227
_cell_length_c   7.25952420
_cell_angle_alpha   108.64493350
_cell_angle_beta   90.00000000
_cell_angle_gamma   117.26758017
_symmetry_Int_Tables_number   1
_chemical_formula_structural   V2O2F3
_chemical_formula_sum   'V4 O4 F6'
_cell_volume   173.14668078
_cell_formula_units_Z   2
loop_
 _symmetry_equiv_pos_site_id
 _symmetry_equiv_pos_as_xyz
  1  'x, y, z'
loop_
 _atom_site_type_symbol
 _atom_site_label
 _atom_site_symmetry_multiplicity
 _atom_site_fract_x
 _atom_site_fract_y
 _atom_site_fract_z
 _atom_site_occupancy
  V  V0  1  0.68754700  0.39961400  0.87788100  1.0
  V  V1  1  0.28278600  0.58693600  0.61931600  1.0
  V  V2  1  0.71206700  0.39961400  0.37788100  1.0
  V  V3  1  0.30415000  0.58693600  0.11931600  1.0
  O  O4  1  0.45198700  0.57591900  0.85269000  1.0
  O  O5  1  0.12393200  0.57591900  0.35269000  1.0
  O  O6  1  0.90196800  0.42607400  0.64124900  1.0
  O  O7  1  0.52410600  0.42607400  0.14124900  1.0
  F  F8  1  0.93820100  0.24041000  0.96117500  1.0
  F  F9  1  0.30220900  0.24041000  0.46117500  1.0
  F  F10  1  0.38499400  0.99287700  0.74903700  1.0
  F  F11  1  0.60788300  0.99287700  0.24903700  1.0
  F  F12  1  0.68585100  0.74717000  0.54107300  1.0
  F  F13  1  0.06131900  0.74717000  0.04107300  1.0
