# generated using pymatgen
data_V3(O2F)2
_symmetry_space_group_name_H-M   'P 1'
_cell_length_a   4.67683380
_cell_length_b   5.58787407
_cell_length_c   7.76541065
_cell_angle_alpha   94.19600414
_cell_angle_beta   90.63842621
_cell_angle_gamma   90.32034691
_symmetry_Int_Tables_number   1
_chemical_formula_structural   V3(O2F)2
_chemical_formula_sum   'V6 O8 F4'
_cell_volume   202.37711380
_cell_formula_units_Z   2
loop_
 _symmetry_equiv_pos_site_id
 _symmetry_equiv_pos_as_xyz
  1  'x, y, z'
loop_
 _atom_site_type_symbol
 _atom_site_label
 _atom_site_symmetry_multiplicity
 _atom_site_fract_x
 _atom_site_fract_y
 _atom_site_fract_z
 _atom_site_occupancy
  V  V0  1  0.99170900  0.68744000  0.66867200  1.0
  V  V1  1  0.47953700  0.80832000  0.35591000  1.0
  V  V2  1  0.98199900  0.01603400  0.97656300  1.0
  V  V3  1  0.49027100  0.15449200  0.66269900  1.0
  V  V4  1  0.51919000  0.49288500  0.01380500  1.0
  V  V5  1  0.01831000  0.32975700  0.32186100  1.0
  O  O6  1  0.20767800  0.63044200  0.43916900  1.0
  O  O7  1  0.70434500  0.21169500  0.88816200  1.0
  O  O8  1  0.19103500  0.28383200  0.08892700  1.0
  O  O9  1  0.69861800  0.53642400  0.24404900  1.0
  O  O10  1  0.19276600  0.97363600  0.76864700  1.0
  O  O11  1  0.69718600  0.86285400  0.56106800  1.0
  O  O12  1  0.31046900  0.12169600  0.42817100  1.0
  O  O13  1  0.80887400  0.72224400  0.91345900  1.0
  F  F14  1  0.29929300  0.80012700  0.11065000  1.0
  F  F15  1  0.78774200  0.02657900  0.22264700  1.0
  F  F16  1  0.30663300  0.47814600  0.76928900  1.0
  F  F17  1  0.81434700  0.36339700  0.56625300  1.0
