# generated using pymatgen
data_V3S5
_symmetry_space_group_name_H-M   'P 1'
_cell_length_a   5.62371404
_cell_length_b   6.68449280
_cell_length_c   8.09686269
_cell_angle_alpha   109.98106497
_cell_angle_beta   110.23118713
_cell_angle_gamma   90.18038934
_symmetry_Int_Tables_number   1
_chemical_formula_structural   V3S5
_chemical_formula_sum   'V6 S10'
_cell_volume   265.85286253
_cell_formula_units_Z   2
loop_
 _symmetry_equiv_pos_site_id
 _symmetry_equiv_pos_as_xyz
  1  'x, y, z'
loop_
 _atom_site_type_symbol
 _atom_site_label
 _atom_site_symmetry_multiplicity
 _atom_site_fract_x
 _atom_site_fract_y
 _atom_site_fract_z
 _atom_site_occupancy
  V  V0  1  0.21224700  0.40782400  0.40825100  1.0
  V  V1  1  0.58775300  0.19217600  0.19174900  1.0
  V  V2  1  0.40000000  0.80000000  0.80000000  1.0
  V  V3  1  0.00547800  0.01355500  0.01583200  1.0
  V  V4  1  0.79452200  0.58644500  0.58416800  1.0
  V  V5  1  0.90000000  0.30000000  0.80000000  1.0
  S  S6  1  0.28395900  0.14981600  0.89795100  1.0
  S  S7  1  0.08321400  0.74715700  0.50018500  1.0
  S  S8  1  0.88309900  0.35593700  0.10465700  1.0
  S  S9  1  0.68470700  0.94505800  0.70042500  1.0
  S  S10  1  0.48046000  0.54910100  0.29852300  1.0
  S  S11  1  0.11529300  0.65494200  0.89957500  1.0
  S  S12  1  0.91690100  0.24406300  0.49534300  1.0
  S  S13  1  0.71678600  0.85284300  0.09981500  1.0
  S  S14  1  0.51604100  0.45018400  0.70204900  1.0
  S  S15  1  0.31954000  0.05089900  0.30147700  1.0
