# generated using pymatgen
data_V4O5F7
_symmetry_space_group_name_H-M   'P 1'
_cell_length_a   5.31613200
_cell_length_b   5.33823910
_cell_length_c   8.90390580
_cell_angle_alpha   104.66108802
_cell_angle_beta   90.00000000
_cell_angle_gamma   119.86310211
_symmetry_Int_Tables_number   1
_chemical_formula_structural   V4O5F7
_chemical_formula_sum   'V4 O5 F7'
_cell_volume   209.58998418
_cell_formula_units_Z   1
loop_
 _symmetry_equiv_pos_site_id
 _symmetry_equiv_pos_as_xyz
  1  'x, y, z'
loop_
 _atom_site_type_symbol
 _atom_site_label
 _atom_site_symmetry_multiplicity
 _atom_site_fract_x
 _atom_site_fract_y
 _atom_site_fract_z
 _atom_site_occupancy
  V  V0  1  0.75270000  0.48653200  0.25048500  1.0
  V  V1  1  0.51617000  0.01346800  0.49951500  1.0
  V  V2  1  0.20705300  0.49712300  0.73703400  1.0
  V  V3  1  0.95993000  0.00287700  0.01296600  1.0
  O  O4  1  0.80721100  0.76019300  0.12249600  1.0
  O  O5  1  0.69310400  0.25000000  0.37500000  1.0
  O  O6  1  0.83984300  0.24346500  0.07828400  1.0
  O  O7  1  0.84637900  0.25653500  0.67171600  1.0
  O  O8  1  0.29701800  0.73980700  0.62750400  1.0
  F  F9  1  0.32757500  0.25290900  0.59073400  1.0
  F  F10  1  0.32466700  0.24709100  0.15926600  1.0
  F  F11  1  0.17475300  0.74831000  0.32964800  1.0
  F  F12  1  0.18006700  0.74778100  0.91816900  1.0
  F  F13  1  0.21480200  0.25000000  0.87500000  1.0
  F  F14  1  0.68228600  0.75221900  0.83183100  1.0
  F  F15  1  0.67644300  0.75169000  0.42035200  1.0
