# generated using pymatgen
data_V4O5F7
_symmetry_space_group_name_H-M   'P 1'
_cell_length_a   5.28489945
_cell_length_b   5.34791451
_cell_length_c   9.04865404
_cell_angle_alpha   105.65415479
_cell_angle_beta   90.33467720
_cell_angle_gamma   119.54846639
_symmetry_Int_Tables_number   1
_chemical_formula_structural   V4O5F7
_chemical_formula_sum   'V4 O5 F7'
_cell_volume   211.26308191
_cell_formula_units_Z   1
loop_
 _symmetry_equiv_pos_site_id
 _symmetry_equiv_pos_as_xyz
  1  'x, y, z'
loop_
 _atom_site_type_symbol
 _atom_site_label
 _atom_site_symmetry_multiplicity
 _atom_site_fract_x
 _atom_site_fract_y
 _atom_site_fract_z
 _atom_site_occupancy
  V  V0  1  0.21753000  0.47369800  0.73876600  1.0
  V  V1  1  0.51227900  0.01891700  0.48837900  1.0
  V  V2  1  0.72971300  0.51953900  0.25558500  1.0
  V  V3  1  0.95405300  0.99594600  0.98429800  1.0
  O  O4  1  0.05205300  0.24458100  0.88182900  1.0
  O  O5  1  0.59680400  0.75632200  0.91407500  1.0
  O  O6  1  0.59701400  0.74379500  0.33732100  1.0
  O  O7  1  0.55791100  0.24142600  0.37674900  1.0
  O  O8  1  0.91813200  0.25579400  0.59719300  1.0
  F  F9  1  0.08642500  0.73831400  0.41615700  1.0
  F  F10  1  0.09070400  0.76011400  0.84315500  1.0
  F  F11  1  0.45578200  0.75386200  0.62446700  1.0
  F  F12  1  0.41630900  0.24648700  0.67010600  1.0
  F  F13  1  0.42333400  0.24409300  0.08232600  1.0
  F  F14  1  0.96744900  0.75753200  0.12285900  1.0
  F  F15  1  0.92450600  0.24958200  0.16673500  1.0
