# generated using pymatgen
data_V4P2O13
_symmetry_space_group_name_H-M   'P 1'
_cell_length_a   4.96968800
_cell_length_b   5.00282193
_cell_length_c   8.78753019
_cell_angle_alpha   88.62449818
_cell_angle_beta   79.98738469
_cell_angle_gamma   80.60618389
_symmetry_Int_Tables_number   1
_chemical_formula_structural   V4P2O13
_chemical_formula_sum   'V4 P2 O13'
_cell_volume   212.26471183
_cell_formula_units_Z   1
loop_
 _symmetry_equiv_pos_site_id
 _symmetry_equiv_pos_as_xyz
  1  'x, y, z'
loop_
 _atom_site_type_symbol
 _atom_site_label
 _atom_site_symmetry_multiplicity
 _atom_site_fract_x
 _atom_site_fract_y
 _atom_site_fract_z
 _atom_site_occupancy
  V  V0  1  0.74945900  0.95596400  0.68591000  1.0
  V  V1  1  0.92558400  0.17681600  0.35741400  1.0
  V  V2  1  0.43096000  0.46155200  0.93985000  1.0
  V  V3  1  0.58519700  0.74626100  0.29648400  1.0
  P  P4  1  0.98697600  0.01034100  0.00186100  1.0
  P  P5  1  0.24628000  0.43222500  0.58672100  1.0
  O  O6  1  0.01090900  0.26592000  0.56453300  1.0
  O  O7  1  0.79686400  0.14752400  0.88604700  1.0
  O  O8  1  0.92906400  0.49478800  0.27677000  1.0
  O  O9  1  0.71469000  0.92469300  0.46740600  1.0
  O  O10  1  0.59463500  0.71756100  0.78777000  1.0
  O  O11  1  0.80427900  0.01884200  0.16987400  1.0
  O  O12  1  0.41247600  0.28020300  0.70872900  1.0
  O  O13  1  0.45209600  0.44200900  0.43194400  1.0
  O  O14  1  0.52956500  0.56466300  0.09943700  1.0
  O  O15  1  0.26692800  0.95680900  0.31165200  1.0
  O  O16  1  0.08138500  0.71210600  0.95634700  1.0
  O  O17  1  0.11836500  0.71925300  0.64112100  1.0
  O  O18  1  0.22381000  0.16469000  0.00931900  1.0
