# generated using pymatgen
data_V5Si3N
_symmetry_space_group_name_H-M   'P 1'
_cell_length_a   4.97336900
_cell_length_b   7.09490400
_cell_length_c   7.09490391
_cell_angle_alpha   120.00000041
_cell_angle_beta   90.00000000
_cell_angle_gamma   90.00000000
_symmetry_Int_Tables_number   1
_chemical_formula_structural   V5Si3N
_chemical_formula_sum   'V10 Si6 N2'
_cell_volume   216.80752623
_cell_formula_units_Z   2
loop_
 _symmetry_equiv_pos_site_id
 _symmetry_equiv_pos_as_xyz
  1  'x, y, z'
loop_
 _atom_site_type_symbol
 _atom_site_label
 _atom_site_symmetry_multiplicity
 _atom_site_fract_x
 _atom_site_fract_y
 _atom_site_fract_z
 _atom_site_occupancy
  V  V0  1  0.25000000  0.77261200  0.77261200  1.0
  V  V1  1  0.75000000  0.22738800  0.22738800  1.0
  V  V2  1  0.25000000  0.00000000  0.22738800  1.0
  V  V3  1  0.75000000  0.00000000  0.77261200  1.0
  V  V4  1  0.25000000  0.22738800  1.00000000  1.0
  V  V5  1  0.75000000  0.77261200  1.00000000  1.0
  V  V6  1  0.50000000  0.66666667  0.33333333  1.0
  V  V7  1  0.50000000  0.33333333  0.66666667  1.0
  V  V8  1  0.00000000  0.33333333  0.66666667  1.0
  V  V9  1  1.00000000  0.66666667  0.33333333  1.0
  Si  Si10  1  0.25000000  0.40911100  0.40911100  1.0
  Si  Si11  1  0.75000000  0.59088900  0.59088900  1.0
  Si  Si12  1  0.25000000  0.00000000  0.59088900  1.0
  Si  Si13  1  0.75000000  0.00000000  0.40911100  1.0
  Si  Si14  1  0.25000000  0.59088900  0.00000000  1.0
  Si  Si15  1  0.75000000  0.40911100  1.00000000  1.0
  N  N16  1  0.50000000  0.00000000  0.00000000  1.0
  N  N17  1  0.00000000  0.00000000  0.00000000  1.0
