# generated using pymatgen
data_V6O7F5
_symmetry_space_group_name_H-M   'P 1'
_cell_length_a   5.59559131
_cell_length_b   5.59559131
_cell_length_c   7.35758973
_cell_angle_alpha   73.43166248
_cell_angle_beta   73.43166248
_cell_angle_gamma   71.86245554
_symmetry_Int_Tables_number   1
_chemical_formula_structural   V6O7F5
_chemical_formula_sum   'V6 O7 F5'
_cell_volume   204.89913730
_cell_formula_units_Z   1
loop_
 _symmetry_equiv_pos_site_id
 _symmetry_equiv_pos_as_xyz
  1  'x, y, z'
loop_
 _atom_site_type_symbol
 _atom_site_label
 _atom_site_symmetry_multiplicity
 _atom_site_fract_x
 _atom_site_fract_y
 _atom_site_fract_z
 _atom_site_occupancy
  V  V0  1  0.69301800  0.69301800  0.82805900  1.0
  V  V1  1  0.33739900  0.33739900  0.66804800  1.0
  V  V2  1  0.65299200  0.65299200  0.31580200  1.0
  V  V3  1  0.30428500  0.30428500  0.19147200  1.0
  V  V4  1  0.99211500  0.99211500  0.50668600  1.0
  V  V5  1  0.00356700  0.00356700  0.00427300  1.0
  O  O6  1  0.63918800  0.04366100  0.66197500  1.0
  O  O7  1  0.96333900  0.35361600  0.33566200  1.0
  O  O8  1  0.23536600  0.23536600  0.97204200  1.0
  O  O9  1  0.78101800  0.78101800  0.02912800  1.0
  O  O10  1  0.42917000  0.42917000  0.35304300  1.0
  O  O11  1  0.04366100  0.63918800  0.66197500  1.0
  O  O12  1  0.35361600  0.96333900  0.33566200  1.0
  F  F13  1  0.57308200  0.57308200  0.63052800  1.0
  F  F14  1  0.88921000  0.88921000  0.29975600  1.0
  F  F15  1  0.10129800  0.10129800  0.70839500  1.0
  F  F16  1  0.69840900  0.30927000  0.99874700  1.0
  F  F17  1  0.30927000  0.69840900  0.99874700  1.0
