# generated using pymatgen
data_VBO3
_symmetry_space_group_name_H-M   'P 1'
_cell_length_a   4.68667055
_cell_length_b   4.68666951
_cell_length_c   5.63581899
_cell_angle_alpha   65.43071652
_cell_angle_beta   65.43071874
_cell_angle_gamma   60.00000427
_symmetry_Int_Tables_number   1
_chemical_formula_structural   VBO3
_chemical_formula_sum   'V2 B2 O6'
_cell_volume   94.04102372
_cell_formula_units_Z   2
loop_
 _symmetry_equiv_pos_site_id
 _symmetry_equiv_pos_as_xyz
  1  'x, y, z'
loop_
 _atom_site_type_symbol
 _atom_site_label
 _atom_site_symmetry_multiplicity
 _atom_site_fract_x
 _atom_site_fract_y
 _atom_site_fract_z
 _atom_site_occupancy
  V  V0  1  0.50000000  0.50000000  0.50000000  1.0
  V  V1  1  0.00000000  0.00000000  0.00000000  1.0
  B  B2  1  0.75000000  0.75000000  0.75000000  1.0
  B  B3  1  0.25000000  0.25000000  0.25000000  1.0
  O  O4  1  0.04599000  0.45401000  0.75000000  1.0
  O  O5  1  0.45401000  0.75000000  0.75000000  1.0
  O  O6  1  0.25000000  0.95401000  0.25000000  1.0
  O  O7  1  0.95401000  0.54599000  0.25000000  1.0
  O  O8  1  0.54599000  0.25000000  0.25000000  1.0
  O  O9  1  0.75000000  0.04599000  0.75000000  1.0
