# generated using pymatgen
data_VClO
_symmetry_space_group_name_H-M   'P 1'
_cell_length_a   3.38393942
_cell_length_b   3.84793201
_cell_length_c   8.61574320
_cell_angle_alpha   89.83504795
_cell_angle_beta   90.05913548
_cell_angle_gamma   89.99660361
_symmetry_Int_Tables_number   1
_chemical_formula_structural   VClO
_chemical_formula_sum   'V2 Cl2 O2'
_cell_volume   112.18652177
_cell_formula_units_Z   2
loop_
 _symmetry_equiv_pos_site_id
 _symmetry_equiv_pos_as_xyz
  1  'x, y, z'
loop_
 _atom_site_type_symbol
 _atom_site_label
 _atom_site_symmetry_multiplicity
 _atom_site_fract_x
 _atom_site_fract_y
 _atom_site_fract_z
 _atom_site_occupancy
  Cl  Cl4  1  0.24925300  0.75080700  0.69247850  1.0
  Cl  Cl6  1  0.75074800  0.24919400  0.30752200  1.0
  O  O8  1  0.25008050  0.74849800  0.04138150  1.0
  O  O10  1  0.74991900  0.25150000  0.95861850  1.0
  V  V0  1  0.25028650  0.24904300  0.10754300  1.0
  V  V1  1  0.74971300  0.75096000  0.89245600  1.0
