# generated using pymatgen
data_VCrO4
_symmetry_space_group_name_H-M   'P 1'
_cell_length_a   5.77922100
_cell_length_b   5.77918339
_cell_length_c   5.77918071
_cell_angle_alpha   94.55949438
_cell_angle_beta   115.44650104
_cell_angle_gamma   119.39585828
_symmetry_Int_Tables_number   1
_chemical_formula_structural   VCrO4
_chemical_formula_sum   'V2 Cr2 O8'
_cell_volume   141.13051816
_cell_formula_units_Z   2
loop_
 _symmetry_equiv_pos_site_id
 _symmetry_equiv_pos_as_xyz
  1  'x, y, z'
loop_
 _atom_site_type_symbol
 _atom_site_label
 _atom_site_symmetry_multiplicity
 _atom_site_fract_x
 _atom_site_fract_y
 _atom_site_fract_z
 _atom_site_occupancy
  V  V0  1  0.74994200  0.88585900  0.63580200  1.0
  V  V1  1  0.24993700  0.11410500  0.36405500  1.0
  Cr  Cr2  1  0.50002100  0.49984800  0.99980800  1.0
  Cr  Cr3  1  0.00001500  0.50017500  0.50022800  1.0
  O  O4  1  0.53078900  0.75655800  0.28734400  1.0
  O  O5  1  0.03070400  0.24345000  0.27419700  1.0
  O  O6  1  0.96927200  0.75689400  0.72620300  1.0
  O  O7  1  0.46932100  0.24311700  0.71244400  1.0
  O  O8  1  0.02161900  0.27386300  0.75224800  1.0
  O  O9  1  0.47838300  0.73065700  0.75223200  1.0
  O  O10  1  0.52156000  0.26931400  0.24771200  1.0
  O  O11  1  0.97843600  0.72615900  0.24772600  1.0
