# generated using pymatgen
data_VFe(CuO2)2
_symmetry_space_group_name_H-M   'P 1'
_cell_length_a   3.04203865
_cell_length_b   3.04203865
_cell_length_c   11.73517610
_cell_angle_alpha   82.55282039
_cell_angle_beta   82.55282039
_cell_angle_gamma   59.99998577
_symmetry_Int_Tables_number   1
_chemical_formula_structural   VFe(CuO2)2
_chemical_formula_sum   'V1 Fe1 Cu2 O4'
_cell_volume   92.98875640
_cell_formula_units_Z   1
loop_
 _symmetry_equiv_pos_site_id
 _symmetry_equiv_pos_as_xyz
  1  'x, y, z'
loop_
 _atom_site_type_symbol
 _atom_site_label
 _atom_site_symmetry_multiplicity
 _atom_site_fract_x
 _atom_site_fract_y
 _atom_site_fract_z
 _atom_site_occupancy
  V  V0  1  0.50000000  0.50000000  0.50000000  1.0
  Fe  Fe1  1  0.00000000  0.00000000  0.00000000  1.0
  Cu  Cu2  1  0.25004900  0.25004900  0.24985300  1.0
  Cu  Cu3  1  0.74995100  0.74995100  0.75014700  1.0
  O  O4  1  0.69684500  0.69684500  0.90946500  1.0
  O  O5  1  0.19683300  0.19683300  0.40950100  1.0
  O  O6  1  0.30315500  0.30315500  0.09053500  1.0
  O  O7  1  0.80316700  0.80316700  0.59049900  1.0
