# generated using pymatgen
data_VGaMo3S8
_symmetry_space_group_name_H-M   'P 1'
_cell_length_a   6.87531247
_cell_length_b   6.87531247
_cell_length_c   6.97760457
_cell_angle_alpha   60.48376972
_cell_angle_beta   60.48376972
_cell_angle_gamma   59.99999553
_symmetry_Int_Tables_number   1
_chemical_formula_structural   VGaMo3S8
_chemical_formula_sum   'V1 Ga1 Mo3 S8'
_cell_volume   234.91646491
_cell_formula_units_Z   1
loop_
 _symmetry_equiv_pos_site_id
 _symmetry_equiv_pos_as_xyz
  1  'x, y, z'
loop_
 _atom_site_type_symbol
 _atom_site_label
 _atom_site_symmetry_multiplicity
 _atom_site_fract_x
 _atom_site_fract_y
 _atom_site_fract_z
 _atom_site_occupancy
  V  V0  1  0.60564000  0.60564000  0.18308000  1.0
  Ga  Ga1  1  0.99897200  0.99897200  0.00308400  1.0
  Mo  Mo2  1  0.19465400  0.59882800  0.60769000  1.0
  Mo  Mo3  1  0.59882800  0.19465400  0.60769000  1.0
  Mo  Mo4  1  0.59882800  0.59882800  0.60769000  1.0
  S  S5  1  0.86420800  0.86420800  0.40737600  1.0
  S  S6  1  0.40848600  0.86229400  0.86692600  1.0
  S  S7  1  0.86229400  0.40848600  0.86692600  1.0
  S  S8  1  0.86229400  0.86229400  0.86692600  1.0
  S  S9  1  0.36457200  0.36457200  0.90628400  1.0
  S  S10  1  0.89357500  0.37382500  0.35877500  1.0
  S  S11  1  0.37382500  0.89357500  0.35877500  1.0
  S  S12  1  0.37382500  0.37382500  0.35877500  1.0
