# generated using pymatgen
data_VHO3
_symmetry_space_group_name_H-M   'P 1'
_cell_length_a   3.67324700
_cell_length_b   6.18254518
_cell_length_c   12.11118199
_cell_angle_alpha   85.68986601
_cell_angle_beta   89.36462413
_cell_angle_gamma   72.92048254
_symmetry_Int_Tables_number   1
_chemical_formula_structural   VHO3
_chemical_formula_sum   'V4 H4 O12'
_cell_volume   262.15414174
_cell_formula_units_Z   4
loop_
 _symmetry_equiv_pos_site_id
 _symmetry_equiv_pos_as_xyz
  1  'x, y, z'
loop_
 _atom_site_type_symbol
 _atom_site_label
 _atom_site_symmetry_multiplicity
 _atom_site_fract_x
 _atom_site_fract_y
 _atom_site_fract_z
 _atom_site_occupancy
  V  V0  1  0.07324300  0.84743600  0.13243500  1.0
  V  V1  1  0.92590400  0.15225900  0.86686300  1.0
  V  V2  1  0.77974700  0.43394600  0.13402200  1.0
  V  V3  1  0.22014600  0.56681100  0.86609200  1.0
  H  H4  1  0.11876300  0.28953900  0.53185000  1.0
  H  H5  1  0.46127900  0.08249200  0.50866100  1.0
  H  H6  1  0.46730400  0.68109000  0.50501800  1.0
  H  H7  1  0.72806300  0.76008200  0.41923400  1.0
  O  O8  1  0.60998500  0.77569400  0.10609300  1.0
  O  O9  1  0.38861500  0.22555600  0.89408300  1.0
  O  O10  1  0.92414300  0.14738000  0.08354200  1.0
  O  O11  1  0.07567900  0.85198000  0.91846200  1.0
  O  O12  1  0.24350800  0.50858600  0.09793400  1.0
  O  O13  1  0.75621800  0.49167500  0.90217000  1.0
  O  O14  1  0.06746700  0.84555200  0.26536300  1.0
  O  O15  1  0.93159700  0.15006800  0.73491200  1.0
  O  O16  1  0.79576300  0.39401700  0.26596700  1.0
  O  O17  1  0.20367800  0.61046400  0.73435300  1.0
  O  O18  1  0.38212500  0.25001800  0.50848900  1.0
  O  O19  1  0.64334400  0.77274900  0.49560300  1.0
