# generated using pymatgen
data_VO
_symmetry_space_group_name_H-M   'P 1'
_cell_length_a   3.06642208
_cell_length_b   3.07810141
_cell_length_c   3.07901868
_cell_angle_alpha   61.92852798
_cell_angle_beta   61.98748835
_cell_angle_gamma   61.76768618
_symmetry_Int_Tables_number   1
_chemical_formula_structural   VO
_chemical_formula_sum   'V1 O1'
_cell_volume   21.42136619
_cell_formula_units_Z   1
loop_
 _symmetry_equiv_pos_site_id
 _symmetry_equiv_pos_as_xyz
  1  'x, y, z'
loop_
 _atom_site_type_symbol
 _atom_site_label
 _atom_site_symmetry_multiplicity
 _atom_site_fract_x
 _atom_site_fract_y
 _atom_site_fract_z
 _atom_site_occupancy
  O  O4  1  0.49999675  0.49999850  0.50000750  1.0
  V  V0  1  0.00000350  0.00000100  0.99999250  1.0
