# generated using pymatgen
data_WSeS
_symmetry_space_group_name_H-M   'P 1'
_cell_length_a   3.25414600
_cell_length_b   3.25414504
_cell_length_c   36.90233000
_cell_angle_alpha   90.00000000
_cell_angle_beta   90.00000000
_cell_angle_gamma   120.00000971
_symmetry_Int_Tables_number   1
_chemical_formula_structural   WSeS
_chemical_formula_sum   'W4 Se4 S4'
_cell_volume   338.42178885
_cell_formula_units_Z   4
loop_
 _symmetry_equiv_pos_site_id
 _symmetry_equiv_pos_as_xyz
  1  'x, y, z'
loop_
 _atom_site_type_symbol
 _atom_site_label
 _atom_site_symmetry_multiplicity
 _atom_site_fract_x
 _atom_site_fract_y
 _atom_site_fract_z
 _atom_site_occupancy
  W  W0  1  0.66666667  0.33333333  0.28181700  1.0
  W  W1  1  0.66666667  0.33333333  0.90603800  1.0
  W  W2  1  0.33333333  0.66666667  0.09396200  1.0
  W  W3  1  0.33333333  0.66666667  0.71818300  1.0
  Se  Se4  1  0.66666667  0.33333333  0.04772500  1.0
  Se  Se5  1  0.33333333  0.66666667  0.95227500  1.0
  Se  Se6  1  0.33333333  0.66666667  0.85981000  1.0
  Se  Se7  1  0.66666667  0.33333333  0.14019000  1.0
  S  S8  1  0.66666667  0.33333333  0.67620700  1.0
  S  S9  1  0.33333333  0.66666667  0.32379300  1.0
  S  S10  1  0.33333333  0.66666667  0.23983300  1.0
  S  S11  1  0.66666667  0.33333333  0.76016700  1.0
