# generated using pymatgen
data_Xe
_symmetry_space_group_name_H-M   'P 1'
_cell_length_a   4.71075545
_cell_length_b   4.71075545
_cell_length_c   8.92603444
_cell_angle_alpha   98.82039818
_cell_angle_beta   98.82039818
_cell_angle_gamma   114.76550338
_symmetry_Int_Tables_number   1
_chemical_formula_structural   Xe
_chemical_formula_sum   Xe2
_cell_volume   172.43100765
_cell_formula_units_Z   2
loop_
 _symmetry_equiv_pos_site_id
 _symmetry_equiv_pos_as_xyz
  1  'x, y, z'
loop_
 _atom_site_type_symbol
 _atom_site_label
 _atom_site_symmetry_multiplicity
 _atom_site_fract_x
 _atom_site_fract_y
 _atom_site_fract_z
 _atom_site_occupancy
  Xe  Xe0  1  0.86689700  0.86689700  0.73379400  1.0
  Xe  Xe2  1  0.13310300  0.13310300  0.26620600  1.0
