# generated using pymatgen
data_Y(HO)3
_symmetry_space_group_name_H-M   'P 1'
_cell_length_a   3.55261400
_cell_length_b   6.36311800
_cell_length_c   6.36311728
_cell_angle_alpha   120.00000376
_cell_angle_beta   90.00000000
_cell_angle_gamma   90.00000000
_symmetry_Int_Tables_number   1
_chemical_formula_structural   Y(HO)3
_chemical_formula_sum   'Y2 H6 O6'
_cell_volume   124.57145679
_cell_formula_units_Z   2
loop_
 _symmetry_equiv_pos_site_id
 _symmetry_equiv_pos_as_xyz
  1  'x, y, z'
loop_
 _atom_site_type_symbol
 _atom_site_label
 _atom_site_symmetry_multiplicity
 _atom_site_fract_x
 _atom_site_fract_y
 _atom_site_fract_z
 _atom_site_occupancy
  Y  Y0  1  0.25000000  0.33333333  0.66666667  1.0
  Y  Y1  1  0.75000000  0.66666667  0.33333333  1.0
  H  H2  1  0.25000000  0.27860500  0.14015900  1.0
  H  H3  1  0.75000000  0.14015900  0.86155400  1.0
  H  H4  1  0.25000000  0.85984100  0.13844600  1.0
  H  H5  1  0.75000000  0.72139500  0.85984100  1.0
  H  H6  1  0.75000000  0.13844600  0.27860500  1.0
  H  H7  1  0.25000000  0.86155400  0.72139500  1.0
  O  O8  1  0.75000000  0.08553500  0.68868700  1.0
  O  O9  1  0.25000000  0.39684800  0.08553500  1.0
  O  O10  1  0.25000000  0.91446500  0.31131300  1.0
  O  O11  1  0.75000000  0.60315200  0.91446500  1.0
  O  O12  1  0.75000000  0.31131300  0.39684800  1.0
  O  O13  1  0.25000000  0.68868700  0.60315200  1.0
