# generated using pymatgen
data_Y2B3C2
_symmetry_space_group_name_H-M   'P 1'
_cell_length_a   3.39597400
_cell_length_b   3.65218500
_cell_length_c   7.07624610
_cell_angle_alpha   90.00000000
_cell_angle_beta   103.88393756
_cell_angle_gamma   90.00000000
_symmetry_Int_Tables_number   1
_chemical_formula_structural   Y2B3C2
_chemical_formula_sum   'Y2 B3 C2'
_cell_volume   85.20058362
_cell_formula_units_Z   1
loop_
 _symmetry_equiv_pos_site_id
 _symmetry_equiv_pos_as_xyz
  1  'x, y, z'
loop_
 _atom_site_type_symbol
 _atom_site_label
 _atom_site_symmetry_multiplicity
 _atom_site_fract_x
 _atom_site_fract_y
 _atom_site_fract_z
 _atom_site_occupancy
  Y  Y0  1  0.36372700  0.50000000  0.72745400  1.0
  Y  Y1  1  0.63627300  0.50000000  0.27254600  1.0
  B  B2  1  0.21727500  1.00000000  0.43455000  1.0
  B  B3  1  0.00000000  0.00000000  0.00000000  1.0
  B  B4  1  0.78272500  0.00000000  0.56545000  1.0
  C  C5  1  0.10495600  0.00000000  0.20991200  1.0
  C  C6  1  0.89504400  0.00000000  0.79008800  1.0
