# generated using pymatgen
data_Y2MnCrO6
_symmetry_space_group_name_H-M   'P 1'
_cell_length_a   5.36917600
_cell_length_b   5.74116800
_cell_length_c   7.48728472
_cell_angle_alpha   90.00000000
_cell_angle_beta   89.62575618
_cell_angle_gamma   90.00000000
_symmetry_Int_Tables_number   1
_chemical_formula_structural   Y2MnCrO6
_chemical_formula_sum   'Y4 Mn2 Cr2 O12'
_cell_volume   230.79318449
_cell_formula_units_Z   2
loop_
 _symmetry_equiv_pos_site_id
 _symmetry_equiv_pos_as_xyz
  1  'x, y, z'
loop_
 _atom_site_type_symbol
 _atom_site_label
 _atom_site_symmetry_multiplicity
 _atom_site_fract_x
 _atom_site_fract_y
 _atom_site_fract_z
 _atom_site_occupancy
  Y  Y0  1  0.48093100  0.07426400  0.24916000  1.0
  Y  Y1  1  0.01906900  0.57426400  0.25084000  1.0
  Y  Y2  1  0.51906900  0.92573600  0.75084000  1.0
  Y  Y3  1  0.98093100  0.42573600  0.74916000  1.0
  Mn  Mn4  1  0.00000000  0.00000000  0.00000000  1.0
  Mn  Mn5  1  0.50000000  0.50000000  0.50000000  1.0
  Cr  Cr6  1  0.50000000  0.50000000  1.00000000  1.0
  Cr  Cr7  1  0.00000000  0.00000000  0.50000000  1.0
  O  O8  1  0.19749200  0.31594200  0.05957500  1.0
  O  O9  1  0.30250800  0.81594200  0.44042500  1.0
  O  O10  1  0.80250800  0.68405800  0.94042500  1.0
  O  O11  1  0.69749200  0.18405800  0.55957500  1.0
  O  O12  1  0.68991400  0.19370600  0.94610900  1.0
  O  O13  1  0.81008600  0.69370600  0.55389100  1.0
  O  O14  1  0.31008600  0.80629400  0.05389100  1.0
  O  O15  1  0.18991400  0.30629400  0.44610900  1.0
  O  O16  1  0.61445200  0.45926900  0.25473400  1.0
  O  O17  1  0.88554800  0.95926900  0.24526600  1.0
  O  O18  1  0.38554800  0.54073100  0.74526600  1.0
  O  O19  1  0.11445200  0.04073100  0.75473400  1.0
