# generated using pymatgen
data_Y2MnFeO6
_symmetry_space_group_name_H-M   'P 1'
_cell_length_a   5.34880600
_cell_length_b   5.79279100
_cell_length_c   7.59788436
_cell_angle_alpha   90.00000000
_cell_angle_beta   89.64194263
_cell_angle_gamma   90.00000000
_symmetry_Int_Tables_number   1
_chemical_formula_structural   Y2MnFeO6
_chemical_formula_sum   'Y4 Mn2 Fe2 O12'
_cell_volume   235.41216708
_cell_formula_units_Z   2
loop_
 _symmetry_equiv_pos_site_id
 _symmetry_equiv_pos_as_xyz
  1  'x, y, z'
loop_
 _atom_site_type_symbol
 _atom_site_label
 _atom_site_symmetry_multiplicity
 _atom_site_fract_x
 _atom_site_fract_y
 _atom_site_fract_z
 _atom_site_occupancy
  Y  Y0  1  0.48124800  0.92296800  0.25005100  1.0
  Y  Y1  1  0.01875200  0.42296800  0.24994900  1.0
  Y  Y2  1  0.51875200  0.07703200  0.74994900  1.0
  Y  Y3  1  0.98124800  0.57703200  0.75005100  1.0
  Mn  Mn4  1  0.50000000  0.50000000  0.50000000  1.0
  Mn  Mn5  1  0.00000000  0.00000000  0.00000000  1.0
  Fe  Fe6  1  0.50000000  0.50000000  1.00000000  1.0
  Fe  Fe7  1  0.00000000  0.00000000  0.50000000  1.0
  O  O8  1  0.80572500  0.31348000  0.55478400  1.0
  O  O9  1  0.69427500  0.81348000  0.94521600  1.0
  O  O10  1  0.19830400  0.67745500  0.05951800  1.0
  O  O11  1  0.30169600  0.17745500  0.44048200  1.0
  O  O12  1  0.19427500  0.68652000  0.44521600  1.0
  O  O13  1  0.30572500  0.18652000  0.05478400  1.0
  O  O14  1  0.80169600  0.32254500  0.94048200  1.0
  O  O15  1  0.69830400  0.82254500  0.55951800  1.0
  O  O16  1  0.38613000  0.46110900  0.74529900  1.0
  O  O17  1  0.11387000  0.96110900  0.75470100  1.0
  O  O18  1  0.61387000  0.53889100  0.25470100  1.0
  O  O19  1  0.88613000  0.03889100  0.24529900  1.0
