# generated using pymatgen
data_Y2Se3
_symmetry_space_group_name_H-M   'P 1'
_cell_length_a   7.11644508
_cell_length_b   7.11644508
_cell_length_c   12.99519921
_cell_angle_alpha   100.64576333
_cell_angle_beta   100.64576338
_cell_angle_gamma   108.98454584
_symmetry_Int_Tables_number   1
_chemical_formula_structural   Y2Se3
_chemical_formula_sum   'Y8 Se12'
_cell_volume   590.01001808
_cell_formula_units_Z   4
loop_
 _symmetry_equiv_pos_site_id
 _symmetry_equiv_pos_as_xyz
  1  'x, y, z'
loop_
 _atom_site_type_symbol
 _atom_site_label
 _atom_site_symmetry_multiplicity
 _atom_site_fract_x
 _atom_site_fract_y
 _atom_site_fract_z
 _atom_site_occupancy
  Y  Y0  1  0.33363500  0.83363500  0.66727000  1.0
  Y  Y1  1  0.16636500  0.66636500  0.33273000  1.0
  Y  Y2  1  0.91636500  0.91636500  0.83273000  1.0
  Y  Y3  1  0.08363500  0.08363500  0.16727000  1.0
  Y  Y4  1  0.99762400  0.49762400  0.99524800  1.0
  Y  Y5  1  0.50237600  0.00237600  0.00475200  1.0
  Y  Y6  1  0.25237600  0.25237600  0.50475200  1.0
  Y  Y7  1  0.74762400  0.74762400  0.49524800  1.0
  Se  Se8  1  0.00840000  0.50840000  0.50000000  1.0
  Se  Se9  1  0.49160000  0.99160000  0.50000000  1.0
  Se  Se10  1  0.24160000  0.24160000  0.00000000  1.0
  Se  Se11  1  0.75840000  0.75840000  1.00000000  1.0
  Se  Se12  1  0.66376700  0.15776300  0.83778800  1.0
  Se  Se13  1  0.84223700  0.33623300  0.16221100  1.0
  Se  Se14  1  0.31997400  0.82597900  0.16221100  1.0
  Se  Se15  1  0.17402100  0.68002600  0.83778800  1.0
  Se  Se16  1  0.58623300  0.59223700  0.66221200  1.0
  Se  Se17  1  0.40776300  0.41376700  0.33778900  1.0
  Se  Se18  1  0.93002600  0.92402100  0.33778900  1.0
  Se  Se19  1  0.07597900  0.06997400  0.66221200  1.0
