# generated using pymatgen
data_Y3GaCo3
_symmetry_space_group_name_H-M   'P 1'
_cell_length_a   4.12856400
_cell_length_b   5.39350210
_cell_length_c   12.89508600
_cell_angle_alpha   90.00000000
_cell_angle_beta   90.00000000
_cell_angle_gamma   112.50319776
_symmetry_Int_Tables_number   1
_chemical_formula_structural   Y3GaCo3
_chemical_formula_sum   'Y6 Ga2 Co6'
_cell_volume   265.27689230
_cell_formula_units_Z   2
loop_
 _symmetry_equiv_pos_site_id
 _symmetry_equiv_pos_as_xyz
  1  'x, y, z'
loop_
 _atom_site_type_symbol
 _atom_site_label
 _atom_site_symmetry_multiplicity
 _atom_site_fract_x
 _atom_site_fract_y
 _atom_site_fract_z
 _atom_site_occupancy
  Y  Y0  1  0.99972300  0.99944600  0.75000000  1.0
  Y  Y1  1  0.00027700  0.00055400  0.25000000  1.0
  Y  Y2  1  0.29154300  0.58308600  0.39702300  1.0
  Y  Y3  1  0.70845700  0.41691400  0.60297700  1.0
  Y  Y4  1  0.70845700  0.41691400  0.89702300  1.0
  Y  Y5  1  0.29154300  0.58308600  0.10297700  1.0
  Ga  Ga6  1  0.00000000  0.00000000  0.00000000  1.0
  Ga  Ga7  1  0.00000000  0.00000000  0.50000000  1.0
  Co  Co8  1  0.30342600  0.60685200  0.75000000  1.0
  Co  Co9  1  0.69657400  0.39314800  0.25000000  1.0
  Co  Co10  1  0.58167500  0.16335000  0.40416100  1.0
  Co  Co11  1  0.41832500  0.83665000  0.59583900  1.0
  Co  Co12  1  0.41832500  0.83665000  0.90416100  1.0
  Co  Co13  1  0.58167500  0.16335000  0.09583900  1.0
