# generated using pymatgen
data_Y3Lu
_symmetry_space_group_name_H-M   'P 1'
_cell_length_a   5.66403700
_cell_length_b   7.24674200
_cell_length_c   7.24674229
_cell_angle_alpha   60.00000132
_cell_angle_beta   90.00000000
_cell_angle_gamma   90.00000000
_symmetry_Int_Tables_number   1
_chemical_formula_structural   Y3Lu
_chemical_formula_sum   'Y6 Lu2'
_cell_volume   257.59791060
_cell_formula_units_Z   2
loop_
 _symmetry_equiv_pos_site_id
 _symmetry_equiv_pos_as_xyz
  1  'x, y, z'
loop_
 _atom_site_type_symbol
 _atom_site_label
 _atom_site_symmetry_multiplicity
 _atom_site_fract_x
 _atom_site_fract_y
 _atom_site_fract_z
 _atom_site_occupancy
  Y  Y0  1  0.75000000  0.66439700  0.16780100  1.0
  Y  Y1  1  0.75000000  0.16780200  0.16780100  1.0
  Y  Y2  1  0.75000000  0.16780200  0.66439600  1.0
  Y  Y3  1  0.25000000  0.33560300  0.83219900  1.0
  Y  Y4  1  0.25000000  0.83219800  0.83219900  1.0
  Y  Y5  1  0.25000000  0.83219800  0.33560400  1.0
  Lu  Lu6  1  0.25000000  0.33333333  0.33333333  1.0
  Lu  Lu7  1  0.75000000  0.66666667  0.66666667  1.0
