# generated using pymatgen
data_Y4S3N2
_symmetry_space_group_name_H-M   'P 1'
_cell_length_a   3.84595461
_cell_length_b   6.76037554
_cell_length_c   8.01381002
_cell_angle_alpha   83.52772418
_cell_angle_beta   76.11593648
_cell_angle_gamma   73.47413604
_symmetry_Int_Tables_number   1
_chemical_formula_structural   Y4S3N2
_chemical_formula_sum   'Y4 S3 N2'
_cell_volume   193.69520537
_cell_formula_units_Z   1
loop_
 _symmetry_equiv_pos_site_id
 _symmetry_equiv_pos_as_xyz
  1  'x, y, z'
loop_
 _atom_site_type_symbol
 _atom_site_label
 _atom_site_symmetry_multiplicity
 _atom_site_fract_x
 _atom_site_fract_y
 _atom_site_fract_z
 _atom_site_occupancy
  Y  Y0  1  0.76083200  0.12757400  0.35076200  1.0
  Y  Y1  1  0.23916800  0.87242600  0.64923800  1.0
  Y  Y2  1  0.43629700  0.27302300  0.85438200  1.0
  Y  Y3  1  0.56370300  0.72697700  0.14561800  1.0
  S  S4  1  0.00000000  0.00000000  0.00000000  1.0
  S  S5  1  0.17431900  0.43600700  0.21535500  1.0
  S  S6  1  0.82568100  0.56399300  0.78464500  1.0
  N  N7  1  0.64313100  0.07540000  0.63833600  1.0
  N  N8  1  0.35686900  0.92460000  0.36166400  1.0
