# generated using pymatgen
data_Y4ZnGa3
_symmetry_space_group_name_H-M   'P 1'
_cell_length_a   4.10050000
_cell_length_b   4.29503000
_cell_length_c   11.36664473
_cell_angle_alpha   100.89042284
_cell_angle_beta   100.39155947
_cell_angle_gamma   90.00000000
_symmetry_Int_Tables_number   1
_chemical_formula_structural   Y4ZnGa3
_chemical_formula_sum   'Y4 Zn1 Ga3'
_cell_volume   193.23673332
_cell_formula_units_Z   1
loop_
 _symmetry_equiv_pos_site_id
 _symmetry_equiv_pos_as_xyz
  1  'x, y, z'
loop_
 _atom_site_type_symbol
 _atom_site_label
 _atom_site_symmetry_multiplicity
 _atom_site_fract_x
 _atom_site_fract_y
 _atom_site_fract_z
 _atom_site_occupancy
  Y  Y0  1  0.32023500  0.82023500  0.64047000  1.0
  Y  Y1  1  0.07120500  0.07120500  0.14241000  1.0
  Y  Y2  1  0.67964900  0.67964900  0.35929800  1.0
  Y  Y3  1  0.92806900  0.42806900  0.85613800  1.0
  Zn  Zn4  1  0.46286000  0.96286000  0.92572000  1.0
  Ga  Ga5  1  0.21275900  0.21275900  0.42551800  1.0
  Ga  Ga6  1  0.53837200  0.53837200  0.07674400  1.0
  Ga  Ga7  1  0.78685100  0.28685100  0.57370200  1.0
