# generated using pymatgen
data_Y5Mg
_symmetry_space_group_name_H-M   'P 1'
_cell_length_a   3.59045400
_cell_length_b   5.63297000
_cell_length_c   9.46853247
_cell_angle_alpha   90.00000000
_cell_angle_beta   100.92939995
_cell_angle_gamma   90.00000000
_symmetry_Int_Tables_number   1
_chemical_formula_structural   Y5Mg
_chemical_formula_sum   'Y5 Mg1'
_cell_volume   188.02679053
_cell_formula_units_Z   1
loop_
 _symmetry_equiv_pos_site_id
 _symmetry_equiv_pos_as_xyz
  1  'x, y, z'
loop_
 _atom_site_type_symbol
 _atom_site_label
 _atom_site_symmetry_multiplicity
 _atom_site_fract_x
 _atom_site_fract_y
 _atom_site_fract_z
 _atom_site_occupancy
  Y  Y0  1  0.00000700  1.00000000  0.00001400  1.0
  Y  Y1  1  0.33027200  0.00000000  0.66054400  1.0
  Y  Y2  1  0.66768000  0.00000000  0.33536000  1.0
  Y  Y3  1  0.11300200  0.50000000  0.22600400  1.0
  Y  Y4  1  0.44520400  0.50000000  0.89040800  1.0
  Mg  Mg5  1  0.77716800  0.50000000  0.55433600  1.0
