# generated using pymatgen
data_YAl3Ag
_symmetry_space_group_name_H-M   'P 1'
_cell_length_a   4.18589300
_cell_length_b   4.20373400
_cell_length_c   6.39242575
_cell_angle_alpha   109.19631165
_cell_angle_beta   109.11167559
_cell_angle_gamma   90.00000000
_symmetry_Int_Tables_number   1
_chemical_formula_structural   YAl3Ag
_chemical_formula_sum   'Y1 Al3 Ag1'
_cell_volume   99.64094875
_cell_formula_units_Z   1
loop_
 _symmetry_equiv_pos_site_id
 _symmetry_equiv_pos_as_xyz
  1  'x, y, z'
loop_
 _atom_site_type_symbol
 _atom_site_label
 _atom_site_symmetry_multiplicity
 _atom_site_fract_x
 _atom_site_fract_y
 _atom_site_fract_z
 _atom_site_occupancy
  Y  Y0  1  0.99986000  0.99986100  0.99972100  1.0
  Al  Al1  1  0.25014800  0.75014800  0.50029600  1.0
  Al  Al2  1  0.39033700  0.39033600  0.78067300  1.0
  Al  Al3  1  0.60985900  0.60985800  0.21971700  1.0
  Ag  Ag4  1  0.74979700  0.24979600  0.49959300  1.0
