# generated using pymatgen
data_Yb(CoGe)6
_symmetry_space_group_name_H-M   'P 1'
_cell_length_a   5.07475200
_cell_length_b   5.07475157
_cell_length_c   7.82961500
_cell_angle_alpha   90.00000000
_cell_angle_beta   90.00000000
_cell_angle_gamma   120.00225299
_symmetry_Int_Tables_number   1
_chemical_formula_structural   Yb(CoGe)6
_chemical_formula_sum   'Yb1 Co6 Ge6'
_cell_volume   174.61871549
_cell_formula_units_Z   1
loop_
 _symmetry_equiv_pos_site_id
 _symmetry_equiv_pos_as_xyz
  1  'x, y, z'
loop_
 _atom_site_type_symbol
 _atom_site_label
 _atom_site_symmetry_multiplicity
 _atom_site_fract_x
 _atom_site_fract_y
 _atom_site_fract_z
 _atom_site_occupancy
  Yb  Yb0  1  0.00001900  0.00001900  1.00000000  1.0
  Co  Co1  1  0.50000500  0.50000500  0.74924300  1.0
  Co  Co2  1  0.50000800  0.00001200  0.74924600  1.0
  Co  Co3  1  0.00001200  0.50000800  0.74924600  1.0
  Co  Co4  1  0.50000500  0.50000500  0.25075700  1.0
  Co  Co5  1  0.50000800  0.00001200  0.25075400  1.0
  Co  Co6  1  0.00001200  0.50000800  0.25075400  1.0
  Ge  Ge7  1  0.66666667  0.33333333  0.00000000  1.0
  Ge  Ge8  1  0.33333333  0.66662833  1.00000000  1.0
  Ge  Ge9  1  0.66666667  0.33333333  0.50000000  1.0
  Ge  Ge10  1  0.33333333  0.66661233  0.50000000  1.0
  Ge  Ge11  1  0.00001000  0.00001000  0.65791800  1.0
  Ge  Ge12  1  0.00001000  0.00001000  0.34208200  1.0
