# generated using pymatgen
data_Yb(SmS2)2
_symmetry_space_group_name_H-M   'P 1'
_cell_length_a   7.31640315
_cell_length_b   7.31640315
_cell_length_c   7.31640315
_cell_angle_alpha   70.61958837
_cell_angle_beta   70.48335579
_cell_angle_gamma   109.51664421
_symmetry_Int_Tables_number   1
_chemical_formula_structural   Yb(SmS2)2
_chemical_formula_sum   'Yb2 Sm4 S8'
_cell_volume   301.48810036
_cell_formula_units_Z   2
loop_
 _symmetry_equiv_pos_site_id
 _symmetry_equiv_pos_as_xyz
  1  'x, y, z'
loop_
 _atom_site_type_symbol
 _atom_site_label
 _atom_site_symmetry_multiplicity
 _atom_site_fract_x
 _atom_site_fract_y
 _atom_site_fract_z
 _atom_site_occupancy
  Yb  Yb0  1  0.50000000  0.25000000  0.25000000  1.0
  Yb  Yb1  1  0.00000000  0.00000000  0.00000000  1.0
  Sm  Sm2  1  0.12176400  0.62500000  0.75323600  1.0
  Sm  Sm3  1  0.62176400  0.49676400  0.62500000  1.0
  Sm  Sm4  1  0.87823600  0.12500000  0.49676400  1.0
  Sm  Sm5  1  0.37823600  0.75323600  0.12500000  1.0
  S  S6  1  0.75065200  0.72959700  0.87276000  1.0
  S  S7  1  0.74934800  0.22894500  0.87341200  1.0
  S  S8  1  0.89764300  0.52040300  0.22894500  1.0
  S  S9  1  0.25065200  0.37724000  0.52040300  1.0
  S  S10  1  0.60235700  0.87276000  0.37658800  1.0
  S  S11  1  0.24934800  0.37658800  0.02105500  1.0
  S  S12  1  0.39764300  0.02105500  0.72959700  1.0
  S  S13  1  0.10235700  0.87341200  0.37724000  1.0
