# generated using pymatgen
data_Yb2AlNi2
_symmetry_space_group_name_H-M   'P 1'
_cell_length_a   4.03500200
_cell_length_b   5.37407600
_cell_length_c   5.45503791
_cell_angle_alpha   119.51024378
_cell_angle_beta   111.70584927
_cell_angle_gamma   90.00000000
_symmetry_Int_Tables_number   1
_chemical_formula_structural   Yb2AlNi2
_chemical_formula_sum   'Yb2 Al1 Ni2'
_cell_volume   93.18483750
_cell_formula_units_Z   1
loop_
 _symmetry_equiv_pos_site_id
 _symmetry_equiv_pos_as_xyz
  1  'x, y, z'
loop_
 _atom_site_type_symbol
 _atom_site_label
 _atom_site_symmetry_multiplicity
 _atom_site_fract_x
 _atom_site_fract_y
 _atom_site_fract_z
 _atom_site_occupancy
  Yb  Yb0  1  0.79761200  0.29761200  0.59522400  1.0
  Yb  Yb1  1  0.20238800  0.70238800  0.40477600  1.0
  Al  Al2  1  0.00000000  0.00000000  0.00000000  1.0
  Ni  Ni3  1  0.50000000  0.25858000  1.00000000  1.0
  Ni  Ni4  1  0.50000000  0.74142000  1.00000000  1.0
