# generated using pymatgen
data_Yb2Mg
_symmetry_space_group_name_H-M   'P 1'
_cell_length_a   3.79044000
_cell_length_b   6.55027007
_cell_length_c   9.31161756
_cell_angle_alpha   70.35170680
_cell_angle_beta   78.25637342
_cell_angle_gamma   73.18187420
_symmetry_Int_Tables_number   1
_chemical_formula_structural   Yb2Mg
_chemical_formula_sum   'Yb4 Mg2'
_cell_volume   206.96597862
_cell_formula_units_Z   2
loop_
 _symmetry_equiv_pos_site_id
 _symmetry_equiv_pos_as_xyz
  1  'x, y, z'
loop_
 _atom_site_type_symbol
 _atom_site_label
 _atom_site_symmetry_multiplicity
 _atom_site_fract_x
 _atom_site_fract_y
 _atom_site_fract_z
 _atom_site_occupancy
  Yb  Yb0  1  0.16190500  0.77268900  0.90350100  1.0
  Yb  Yb1  1  0.83809500  0.22731100  0.09649900  1.0
  Yb  Yb2  1  0.51001200  0.68473400  0.29524200  1.0
  Yb  Yb3  1  0.48998800  0.31526600  0.70475800  1.0
  Mg  Mg4  1  0.19290400  0.19402900  0.42016300  1.0
  Mg  Mg5  1  0.80709600  0.80597100  0.57983700  1.0
