# generated using pymatgen
data_YbAg(MoO4)2
_symmetry_space_group_name_H-M   'P 1'
_cell_length_a   5.25437200
_cell_length_b   5.25437200
_cell_length_c   6.82342493
_cell_angle_alpha   112.64526333
_cell_angle_beta   112.64526334
_cell_angle_gamma   90.00000000
_symmetry_Int_Tables_number   1
_chemical_formula_structural   YbAg(MoO4)2
_chemical_formula_sum   'Yb1 Ag1 Mo2 O8'
_cell_volume   158.00829012
_cell_formula_units_Z   1
loop_
 _symmetry_equiv_pos_site_id
 _symmetry_equiv_pos_as_xyz
  1  'x, y, z'
loop_
 _atom_site_type_symbol
 _atom_site_label
 _atom_site_symmetry_multiplicity
 _atom_site_fract_x
 _atom_site_fract_y
 _atom_site_fract_z
 _atom_site_occupancy
  Yb  Yb0  1  0.50000000  0.50000000  1.00000000  1.0
  Ag  Ag1  1  0.75000000  0.25000000  0.50000000  1.0
  Mo  Mo2  1  0.25000000  0.75000000  0.50000000  1.0
  Mo  Mo3  1  0.00000000  0.00000000  0.00000000  1.0
  O  O4  1  0.75949000  0.16276700  0.83263900  1.0
  O  O5  1  0.07314800  0.66987100  0.83263700  1.0
  O  O6  1  0.83723400  0.92685200  0.16736200  1.0
  O  O7  1  0.33012800  0.24051000  0.16736200  1.0
  O  O8  1  0.18694100  0.08083000  0.67619900  1.0
  O  O9  1  0.48925800  0.59536900  0.67619900  1.0
  O  O10  1  0.91917000  0.51074200  0.32380100  1.0
  O  O11  1  0.40463100  0.81305900  0.32380100  1.0
