# generated using pymatgen
data_YbCu2
_symmetry_space_group_name_H-M   'P 1'
_cell_length_a   4.23525200
_cell_length_b   5.40212727
_cell_length_c   5.40212727
_cell_angle_alpha   77.81667227
_cell_angle_beta   66.92108835
_cell_angle_gamma   66.92108835
_symmetry_Int_Tables_number   1
_chemical_formula_structural   YbCu2
_chemical_formula_sum   'Yb2 Cu4'
_cell_volume   104.36429261
_cell_formula_units_Z   2
loop_
 _symmetry_equiv_pos_site_id
 _symmetry_equiv_pos_as_xyz
  1  'x, y, z'
loop_
 _atom_site_type_symbol
 _atom_site_label
 _atom_site_symmetry_multiplicity
 _atom_site_fract_x
 _atom_site_fract_y
 _atom_site_fract_z
 _atom_site_occupancy
  Yb  Yb0  1  0.45687700  0.29312300  0.79312300  1.0
  Yb  Yb1  1  0.54312300  0.70687700  0.20687700  1.0
  Cu  Cu2  1  0.83720200  0.71814300  0.60745300  1.0
  Cu  Cu3  1  0.16279800  0.28185700  0.39254700  1.0
  Cu  Cu4  1  0.16279800  0.89254700  0.78185700  1.0
  Cu  Cu5  1  0.83720200  0.10745300  0.21814300  1.0
