# generated using pymatgen
data_YbCuBi
_symmetry_space_group_name_H-M   'P 1'
_cell_length_a   4.63586000
_cell_length_b   4.63585954
_cell_length_c   7.60280900
_cell_angle_alpha   90.00000000
_cell_angle_beta   90.00000000
_cell_angle_gamma   120.00000327
_symmetry_Int_Tables_number   1
_chemical_formula_structural   YbCuBi
_chemical_formula_sum   'Yb2 Cu2 Bi2'
_cell_volume   141.50287976
_cell_formula_units_Z   2
loop_
 _symmetry_equiv_pos_site_id
 _symmetry_equiv_pos_as_xyz
  1  'x, y, z'
loop_
 _atom_site_type_symbol
 _atom_site_label
 _atom_site_symmetry_multiplicity
 _atom_site_fract_x
 _atom_site_fract_y
 _atom_site_fract_z
 _atom_site_occupancy
  Yb  Yb0  1  0.00000000  0.00000000  0.01253300  1.0
  Yb  Yb1  1  0.00000000  0.00000000  0.51253300  1.0
  Cu  Cu2  1  0.33333333  0.66666667  0.18068900  1.0
  Cu  Cu3  1  0.66666667  0.33333333  0.68068900  1.0
  Bi  Bi4  1  0.66666667  0.33333333  0.28157800  1.0
  Bi  Bi5  1  0.33333333  0.66666667  0.78157800  1.0
