# generated using pymatgen
data_YbNbO4
_symmetry_space_group_name_H-M   'P 1'
_cell_length_a   5.25443263
_cell_length_b   5.33351516
_cell_length_c   6.61655796
_cell_angle_alpha   113.43295981
_cell_angle_beta   113.05526846
_cell_angle_gamma   90.77450631
_symmetry_Int_Tables_number   1
_chemical_formula_structural   YbNbO4
_chemical_formula_sum   'Yb2 Nb2 O8'
_cell_volume   153.36628272
_cell_formula_units_Z   2
loop_
 _symmetry_equiv_pos_site_id
 _symmetry_equiv_pos_as_xyz
  1  'x, y, z'
loop_
 _atom_site_type_symbol
 _atom_site_label
 _atom_site_symmetry_multiplicity
 _atom_site_fract_x
 _atom_site_fract_y
 _atom_site_fract_z
 _atom_site_occupancy
  Yb  Yb0  1  0.37561300  0.62561300  0.25122600  1.0
  Yb  Yb1  1  0.62438700  0.37438700  0.74877400  1.0
  Nb  Nb2  1  0.87106500  0.12106500  0.24213000  1.0
  Nb  Nb3  1  0.12893500  0.87893500  0.75787000  1.0
  O  O4  1  0.20860000  0.39627900  0.43556100  1.0
  O  O5  1  0.72696100  0.03928200  0.43556100  1.0
  O  O6  1  0.79140000  0.60372100  0.56443900  1.0
  O  O7  1  0.27303900  0.96071800  0.56443900  1.0
  O  O8  1  0.03127700  0.20996600  0.93885000  1.0
  O  O9  1  0.40757300  0.72888400  0.93885000  1.0
  O  O10  1  0.96872300  0.79003400  0.06115000  1.0
  O  O11  1  0.59242700  0.27111600  0.06115000  1.0
