# generated using pymatgen
data_YGa2Ni
_symmetry_space_group_name_H-M   'P 1'
_cell_length_a   4.13439800
_cell_length_b   5.47729383
_cell_length_c   6.66156100
_cell_angle_alpha   90.00000000
_cell_angle_beta   90.00000000
_cell_angle_gamma   112.17349698
_symmetry_Int_Tables_number   1
_chemical_formula_structural   YGa2Ni
_chemical_formula_sum   'Y2 Ga4 Ni2'
_cell_volume   139.69682771
_cell_formula_units_Z   2
loop_
 _symmetry_equiv_pos_site_id
 _symmetry_equiv_pos_as_xyz
  1  'x, y, z'
loop_
 _atom_site_type_symbol
 _atom_site_label
 _atom_site_symmetry_multiplicity
 _atom_site_fract_x
 _atom_site_fract_y
 _atom_site_fract_z
 _atom_site_occupancy
  Y  Y0  1  0.07175000  0.14350000  0.25000000  1.0
  Y  Y1  1  0.92825000  0.85650000  0.75000000  1.0
  Ga  Ga2  1  0.35538700  0.71077400  0.05392200  1.0
  Ga  Ga3  1  0.35538700  0.71077400  0.44607800  1.0
  Ga  Ga4  1  0.64461300  0.28922600  0.94607800  1.0
  Ga  Ga5  1  0.64461300  0.28922600  0.55392200  1.0
  Ni  Ni6  1  0.78997400  0.57994800  0.25000000  1.0
  Ni  Ni7  1  0.21002600  0.42005200  0.75000000  1.0
