# generated using pymatgen
data_YHg3
_symmetry_space_group_name_H-M   'P 1'
_cell_length_a   5.03667000
_cell_length_b   6.65767000
_cell_length_c   6.65766970
_cell_angle_alpha   120.00000150
_cell_angle_beta   90.00000000
_cell_angle_gamma   90.00000000
_symmetry_Int_Tables_number   1
_chemical_formula_structural   YHg3
_chemical_formula_sum   'Y2 Hg6'
_cell_volume   193.33862794
_cell_formula_units_Z   2
loop_
 _symmetry_equiv_pos_site_id
 _symmetry_equiv_pos_as_xyz
  1  'x, y, z'
loop_
 _atom_site_type_symbol
 _atom_site_label
 _atom_site_symmetry_multiplicity
 _atom_site_fract_x
 _atom_site_fract_y
 _atom_site_fract_z
 _atom_site_occupancy
  Y  Y0  1  0.75000000  0.66666667  0.33333333  1.0
  Y  Y1  1  0.25000000  0.33333333  0.66666667  1.0
  Hg  Hg2  1  0.75000000  0.16606600  0.33213200  1.0
  Hg  Hg3  1  0.75000000  0.16606600  0.83393400  1.0
  Hg  Hg4  1  0.75000000  0.66786800  0.83393400  1.0
  Hg  Hg5  1  0.25000000  0.83393400  0.66786800  1.0
  Hg  Hg6  1  0.25000000  0.83393400  0.16606600  1.0
  Hg  Hg7  1  0.25000000  0.33213200  0.16606600  1.0
