# generated using pymatgen
data_YIn7Cu5
_symmetry_space_group_name_H-M   'P 1'
_cell_length_a   5.62492600
_cell_length_b   7.24703011
_cell_length_c   7.24703011
_cell_angle_alpha   81.58448542
_cell_angle_beta   67.16461094
_cell_angle_gamma   67.16461095
_symmetry_Int_Tables_number   1
_chemical_formula_structural   YIn7Cu5
_chemical_formula_sum   'Y1 In7 Cu5'
_cell_volume   250.92196679
_cell_formula_units_Z   1
loop_
 _symmetry_equiv_pos_site_id
 _symmetry_equiv_pos_as_xyz
  1  'x, y, z'
loop_
 _atom_site_type_symbol
 _atom_site_label
 _atom_site_symmetry_multiplicity
 _atom_site_fract_x
 _atom_site_fract_y
 _atom_site_fract_z
 _atom_site_occupancy
  Y  Y0  1  0.00000000  0.00109000  0.99891000  1.0
  In  In1  1  0.00000000  0.65784600  0.34215400  1.0
  In  In2  1  0.00000000  0.33417200  0.66582800  1.0
  In  In3  1  0.34028400  0.64814200  0.67129000  1.0
  In  In4  1  0.65971600  0.32871000  0.35185800  1.0
  In  In5  1  0.50000000  0.77471600  0.22528400  1.0
  In  In6  1  0.29899300  0.21282100  0.18919300  1.0
  In  In7  1  0.70100700  0.81080700  0.78717800  1.0
  Cu  Cu8  1  0.49154300  0.00756900  0.50412100  1.0
  Cu  Cu9  1  0.99676700  0.00756900  0.50412100  1.0
  Cu  Cu10  1  0.00323300  0.49587900  0.99243100  1.0
  Cu  Cu11  1  0.50845700  0.49587900  0.99243100  1.0
  Cu  Cu12  1  0.50000000  0.22480000  0.77520000  1.0
