# generated using pymatgen
data_YInCu
_symmetry_space_group_name_H-M   'P 1'
_cell_length_a   3.91529700
_cell_length_b   7.51046200
_cell_length_c   7.51046123
_cell_angle_alpha   120.00000338
_cell_angle_beta   90.00000000
_cell_angle_gamma   90.00000000
_symmetry_Int_Tables_number   1
_chemical_formula_structural   YInCu
_chemical_formula_sum   'Y3 In3 Cu3'
_cell_volume   191.26195474
_cell_formula_units_Z   3
loop_
 _symmetry_equiv_pos_site_id
 _symmetry_equiv_pos_as_xyz
  1  'x, y, z'
loop_
 _atom_site_type_symbol
 _atom_site_label
 _atom_site_symmetry_multiplicity
 _atom_site_fract_x
 _atom_site_fract_y
 _atom_site_fract_z
 _atom_site_occupancy
  Y  Y0  1  0.50000000  0.59084600  0.59084600  1.0
  Y  Y1  1  0.50000000  1.00000000  0.40915400  1.0
  Y  Y2  1  0.50000000  0.40915400  0.00000000  1.0
  In  In3  1  0.00000000  0.25384200  0.25384200  1.0
  In  In4  1  1.00000000  1.00000000  0.74615800  1.0
  In  In5  1  1.00000000  0.74615800  0.00000000  1.0
  Cu  Cu6  1  1.00000000  0.66666667  0.33333333  1.0
  Cu  Cu7  1  1.00000000  0.33333333  0.66666667  1.0
  Cu  Cu8  1  0.50000000  0.00000000  0.00000000  1.0
