# generated using pymatgen
data_YInNi
_symmetry_space_group_name_H-M   'P 1'
_cell_length_a   3.76317800
_cell_length_b   7.52197000
_cell_length_c   7.52196991
_cell_angle_alpha   120.00000040
_cell_angle_beta   90.00000000
_cell_angle_gamma   90.00000000
_symmetry_Int_Tables_number   1
_chemical_formula_structural   YInNi
_chemical_formula_sum   'Y3 In3 Ni3'
_cell_volume   184.39476192
_cell_formula_units_Z   3
loop_
 _symmetry_equiv_pos_site_id
 _symmetry_equiv_pos_as_xyz
  1  'x, y, z'
loop_
 _atom_site_type_symbol
 _atom_site_label
 _atom_site_symmetry_multiplicity
 _atom_site_fract_x
 _atom_site_fract_y
 _atom_site_fract_z
 _atom_site_occupancy
  Y  Y0  1  0.50000000  0.00000000  0.58943900  1.0
  Y  Y1  1  0.50000000  0.41056100  0.41056100  1.0
  Y  Y2  1  0.50000000  0.58943900  0.00000000  1.0
  In  In3  1  0.00000000  0.00000000  0.25441400  1.0
  In  In4  1  1.00000000  0.74558600  0.74558600  1.0
  In  In5  1  0.00000000  0.25441400  0.00000000  1.0
  Ni  Ni6  1  0.50000000  0.00000000  0.00000000  1.0
  Ni  Ni7  1  1.00000000  0.33333333  0.66666667  1.0
  Ni  Ni8  1  1.00000000  0.66666667  0.33333333  1.0
