# generated using pymatgen
data_YSiBRh3
_symmetry_space_group_name_H-M   'P 1'
_cell_length_a   3.42976800
_cell_length_b   5.49937600
_cell_length_c   5.49937572
_cell_angle_alpha   120.00000167
_cell_angle_beta   90.00000000
_cell_angle_gamma   90.00000000
_symmetry_Int_Tables_number   1
_chemical_formula_structural   YSiBRh3
_chemical_formula_sum   'Y1 Si1 B1 Rh3'
_cell_volume   89.83016019
_cell_formula_units_Z   1
loop_
 _symmetry_equiv_pos_site_id
 _symmetry_equiv_pos_as_xyz
  1  'x, y, z'
loop_
 _atom_site_type_symbol
 _atom_site_label
 _atom_site_symmetry_multiplicity
 _atom_site_fract_x
 _atom_site_fract_y
 _atom_site_fract_z
 _atom_site_occupancy
  Y  Y0  1  1.00000000  0.66666667  0.33333333  1.0
  Si  Si1  1  0.00000000  0.00000000  0.00000000  1.0
  B  B2  1  0.00000000  0.33333333  0.66666667  1.0
  Rh  Rh3  1  0.50000000  0.65370200  0.82685100  1.0
  Rh  Rh4  1  0.50000000  0.17314900  0.34629800  1.0
  Rh  Rh5  1  0.50000000  0.17314900  0.82685100  1.0
