# generated using pymatgen
data_YVO3
_symmetry_space_group_name_H-M   'P 1'
_cell_length_a   5.35929800
_cell_length_b   5.66085507
_cell_length_c   7.71628113
_cell_angle_alpha   90.00148048
_cell_angle_beta   90.00119702
_cell_angle_gamma   89.99826596
_symmetry_Int_Tables_number   1
_chemical_formula_structural   YVO3
_chemical_formula_sum   'Y4 V4 O12'
_cell_volume   234.09815136
_cell_formula_units_Z   4
loop_
 _symmetry_equiv_pos_site_id
 _symmetry_equiv_pos_as_xyz
  1  'x, y, z'
loop_
 _atom_site_type_symbol
 _atom_site_label
 _atom_site_symmetry_multiplicity
 _atom_site_fract_x
 _atom_site_fract_y
 _atom_site_fract_z
 _atom_site_occupancy
  Y  Y0  1  0.52207400  0.57001100  0.25001300  1.0
  Y  Y1  1  0.02210800  0.92999000  0.74999800  1.0
  Y  Y2  1  0.47792600  0.43000100  0.74998400  1.0
  Y  Y3  1  0.97789300  0.06999500  0.25000200  1.0
  V  V4  1  0.49999800  0.99999700  0.50000000  1.0
  V  V5  1  0.00000600  0.50000600  0.00000100  1.0
  V  V6  1  0.99999700  0.50000600  0.50000200  1.0
  V  V7  1  0.50000000  0.99999900  0.00000300  1.0
  O  O8  1  0.11775100  0.45745900  0.25000200  1.0
  O  O9  1  0.61776700  0.04251900  0.74998100  1.0
  O  O10  1  0.88225200  0.54253400  0.75000300  1.0
  O  O11  1  0.38223400  0.95748200  0.25001500  1.0
  O  O12  1  0.18702200  0.19958200  0.55941400  1.0
  O  O13  1  0.68702800  0.30042300  0.44059900  1.0
  O  O14  1  0.81297300  0.80042300  0.44058400  1.0
  O  O15  1  0.31297000  0.69957300  0.55939900  1.0
  O  O16  1  0.81291700  0.80041900  0.05940700  1.0
  O  O17  1  0.31294700  0.69957600  0.94059900  1.0
  O  O18  1  0.18708100  0.19958200  0.94059200  1.0
  O  O19  1  0.68705700  0.30042400  0.05940200  1.0
