# generated using pymatgen
data_Zn(GaS2)2
_symmetry_space_group_name_H-M   'P 1'
_cell_length_a   5.37088600
_cell_length_b   5.37088600
_cell_length_c   6.47834167
_cell_angle_alpha   114.48948887
_cell_angle_beta   114.48948886
_cell_angle_gamma   90.00000001
_symmetry_Int_Tables_number   1
_chemical_formula_structural   Zn(GaS2)2
_chemical_formula_sum   'Zn1 Ga2 S4'
_cell_volume   151.39753209
_cell_formula_units_Z   1
loop_
 _symmetry_equiv_pos_site_id
 _symmetry_equiv_pos_as_xyz
  1  'x, y, z'
loop_
 _atom_site_type_symbol
 _atom_site_label
 _atom_site_symmetry_multiplicity
 _atom_site_fract_x
 _atom_site_fract_y
 _atom_site_fract_z
 _atom_site_occupancy
  Zn  Zn0  1  0.00000000  0.00000000  0.00000000  1.0
  Ga  Ga1  1  0.25000000  0.75000000  0.50000000  1.0
  Ga  Ga2  1  0.50000000  0.50000000  0.00000000  1.0
  S  S3  1  0.11939300  0.61039800  0.73939000  1.0
  S  S4  1  0.87100800  0.88060800  0.26061000  1.0
  S  S5  1  0.38960200  0.38000200  0.26060900  1.0
  S  S6  1  0.61999800  0.12899300  0.73939100  1.0
