# generated using pymatgen
data_Zn2CoWO6
_symmetry_space_group_name_H-M   'P 1'
_cell_length_a   5.25897978
_cell_length_b   5.25961706
_cell_length_c   5.57468017
_cell_angle_alpha   90.00659261
_cell_angle_beta   118.11611965
_cell_angle_gamma   119.99285858
_symmetry_Int_Tables_number   1
_chemical_formula_structural   Zn2CoWO6
_chemical_formula_sum   'Zn2 Co1 W1 O6'
_cell_volume   112.04158717
_cell_formula_units_Z   1
loop_
 _symmetry_equiv_pos_site_id
 _symmetry_equiv_pos_as_xyz
  1  'x, y, z'
loop_
 _atom_site_type_symbol
 _atom_site_label
 _atom_site_symmetry_multiplicity
 _atom_site_fract_x
 _atom_site_fract_y
 _atom_site_fract_z
 _atom_site_occupancy
  Co  Co4  1  0.99828200  0.49873300  0.48264400  1.0
  O  O8  1  0.51482600  0.89010400  0.71177000  1.0
  O  O10  1  0.46529900  0.09618250  0.20616300  1.0
  O  O12  1  0.85126950  0.75419250  0.20571900  1.0
  O  O14  1  0.12425650  0.36877700  0.20582400  1.0
  O  O16  1  0.83564850  0.62337450  0.71150000  1.0
  O  O18  1  0.10134700  0.21027350  0.71086300  1.0
  W  W6  1  0.00251400  0.00076500  0.98940900  1.0
  Zn  Zn0  1  0.57487200  0.78704950  0.34712000  1.0
  Zn  Zn2  1  0.49726450  0.24820850  0.73151600  1.0
