# generated using pymatgen
data_Zn2GeS4
_symmetry_space_group_name_H-M   'P 1'
_cell_length_a   5.47754200
_cell_length_b   5.47754200
_cell_length_c   6.39653074
_cell_angle_alpha   115.35116679
_cell_angle_beta   115.35116679
_cell_angle_gamma   90.00000000
_symmetry_Int_Tables_number   1
_chemical_formula_structural   Zn2GeS4
_chemical_formula_sum   'Zn2 Ge1 S4'
_cell_volume   152.73465543
_cell_formula_units_Z   1
loop_
 _symmetry_equiv_pos_site_id
 _symmetry_equiv_pos_as_xyz
  1  'x, y, z'
loop_
 _atom_site_type_symbol
 _atom_site_label
 _atom_site_symmetry_multiplicity
 _atom_site_fract_x
 _atom_site_fract_y
 _atom_site_fract_z
 _atom_site_occupancy
  Zn  Zn0  1  0.75000000  0.25000000  0.50000000  1.0
  Zn  Zn1  1  0.25000000  0.75000000  0.50000000  1.0
  Ge  Ge2  1  0.50000000  0.50000000  1.00000000  1.0
  S  S3  1  0.63021000  0.13673600  0.76694600  1.0
  S  S4  1  0.13673600  0.63021000  0.76694600  1.0
  S  S5  1  0.36979000  0.36979000  0.23305400  1.0
  S  S6  1  0.86326400  0.86326400  0.23305400  1.0
