# generated using pymatgen
data_Zn2PN3
_symmetry_space_group_name_H-M   'P 1'
_cell_length_a   4.97771900
_cell_length_b   5.45936598
_cell_length_c   5.45936598
_cell_angle_alpha   119.40381540
_cell_angle_beta   90.00000000
_cell_angle_gamma   90.00000000
_symmetry_Int_Tables_number   1
_chemical_formula_structural   Zn2PN3
_chemical_formula_sum   'Zn4 P2 N6'
_cell_volume   129.24782670
_cell_formula_units_Z   2
loop_
 _symmetry_equiv_pos_site_id
 _symmetry_equiv_pos_as_xyz
  1  'x, y, z'
loop_
 _atom_site_type_symbol
 _atom_site_label
 _atom_site_symmetry_multiplicity
 _atom_site_fract_x
 _atom_site_fract_y
 _atom_site_fract_z
 _atom_site_occupancy
  Zn  Zn0  1  0.53170200  0.82439200  0.49555500  1.0
  Zn  Zn1  1  0.53170200  0.49555500  0.82439200  1.0
  Zn  Zn2  1  0.03170200  0.17560800  0.50444500  1.0
  Zn  Zn3  1  0.03170200  0.50444500  0.17560800  1.0
  P  P4  1  0.04338400  0.84023800  0.84023800  1.0
  P  P5  1  0.54338400  0.15976200  0.15976200  1.0
  N  N6  1  0.12561300  0.83997600  0.55198100  1.0
  N  N7  1  0.12561300  0.55198100  0.83997600  1.0
  N  N8  1  0.62561300  0.16002400  0.44801900  1.0
  N  N9  1  0.62561300  0.44801900  0.16002400  1.0
  N  N10  1  0.69760600  0.88250300  0.88250300  1.0
  N  N11  1  0.19760600  0.11749700  0.11749700  1.0
