# generated using pymatgen
data_Zn3CdSe4
_symmetry_space_group_name_H-M   'P 1'
_cell_length_a   4.13955159
_cell_length_b   7.17994875
_cell_length_c   7.17994875
_cell_angle_alpha   109.50623564
_cell_angle_beta   90.00000000
_cell_angle_gamma   90.00000000
_symmetry_Int_Tables_number   1
_chemical_formula_structural   Zn3CdSe4
_chemical_formula_sum   'Zn3 Cd1 Se4'
_cell_volume   201.15266893
_cell_formula_units_Z   1
loop_
 _symmetry_equiv_pos_site_id
 _symmetry_equiv_pos_as_xyz
  1  'x, y, z'
loop_
 _atom_site_type_symbol
 _atom_site_label
 _atom_site_symmetry_multiplicity
 _atom_site_fract_x
 _atom_site_fract_y
 _atom_site_fract_z
 _atom_site_occupancy
  Zn  Zn0  1  0.00000000  0.00018400  0.99981600  1.0
  Zn  Zn1  1  0.50000000  0.00090800  0.50065200  1.0
  Zn  Zn2  1  0.50000000  0.49934800  0.99909200  1.0
  Cd  Cd3  1  0.00000000  0.49886100  0.50113900  1.0
  Se  Se4  1  0.50000000  0.63675900  0.36324100  1.0
  Se  Se5  1  1.00000000  0.63017900  0.89146700  1.0
  Se  Se6  1  1.00000000  0.10853300  0.36982100  1.0
  Se  Se7  1  0.50000000  0.12522900  0.87477100  1.0
