# generated using pymatgen
data_Zn4CdSe5
_symmetry_space_group_name_H-M   'P 1'
_cell_length_a   4.11792826
_cell_length_b   4.11792826
_cell_length_c   14.94453966
_cell_angle_alpha   97.91903874
_cell_angle_beta   97.91903874
_cell_angle_gamma   90.00000000
_symmetry_Int_Tables_number   1
_chemical_formula_structural   Zn4CdSe5
_chemical_formula_sum   'Zn4 Cd1 Se5'
_cell_volume   248.56269201
_cell_formula_units_Z   1
loop_
 _symmetry_equiv_pos_site_id
 _symmetry_equiv_pos_as_xyz
  1  'x, y, z'
loop_
 _atom_site_type_symbol
 _atom_site_label
 _atom_site_symmetry_multiplicity
 _atom_site_fract_x
 _atom_site_fract_y
 _atom_site_fract_z
 _atom_site_occupancy
  Zn  Zn0  1  0.99545000  0.99545000  0.99090100  1.0
  Zn  Zn1  1  0.39919300  0.39919300  0.79838600  1.0
  Zn  Zn2  1  0.80080700  0.80080700  0.60161400  1.0
  Zn  Zn3  1  0.20455000  0.20455000  0.40909900  1.0
  Cd  Cd4  1  0.60000000  0.60000000  0.20000000  1.0
  Se  Se5  1  0.35000000  0.85000000  0.70000000  1.0
  Se  Se6  1  0.75242400  0.25242400  0.50484800  1.0
  Se  Se7  1  0.15692800  0.65692800  0.31385600  1.0
  Se  Se8  1  0.54307200  0.04307200  0.08614400  1.0
  Se  Se9  1  0.94757600  0.44757600  0.89515200  1.0
