# generated using pymatgen
data_ZnCu2GeS4
_symmetry_space_group_name_H-M   'P 1'
_cell_length_a   5.33375000
_cell_length_b   5.33375000
_cell_length_c   6.54921957
_cell_angle_alpha   114.02937822
_cell_angle_beta   114.02937821
_cell_angle_gamma   90.00000000
_symmetry_Int_Tables_number   1
_chemical_formula_structural   ZnCu2GeS4
_chemical_formula_sum   'Zn1 Cu2 Ge1 S4'
_cell_volume   152.32203757
_cell_formula_units_Z   1
loop_
 _symmetry_equiv_pos_site_id
 _symmetry_equiv_pos_as_xyz
  1  'x, y, z'
loop_
 _atom_site_type_symbol
 _atom_site_label
 _atom_site_symmetry_multiplicity
 _atom_site_fract_x
 _atom_site_fract_y
 _atom_site_fract_z
 _atom_site_occupancy
  Zn  Zn0  1  0.00000000  0.00000000  0.00000000  1.0
  Cu  Cu1  1  0.75000000  0.25000000  0.50000000  1.0
  Cu  Cu2  1  0.25000000  0.75000000  0.50000000  1.0
  Ge  Ge3  1  0.50000000  0.50000000  0.00000000  1.0
  S  S4  1  0.87018100  0.87018100  0.25539800  1.0
  S  S5  1  0.61478300  0.12981900  0.74460200  1.0
  S  S6  1  0.38521700  0.38521700  0.25539800  1.0
  S  S7  1  0.12981900  0.61478300  0.74460200  1.0
