# generated using pymatgen
data_ZnGaPS
_symmetry_space_group_name_H-M   'P 1'
_cell_length_a   3.87782807
_cell_length_b   3.87782807
_cell_length_c   6.72112718
_cell_angle_alpha   73.23298318
_cell_angle_beta   73.23298318
_cell_angle_gamma   59.99999876
_symmetry_Int_Tables_number   1
_chemical_formula_structural   ZnGaPS
_chemical_formula_sum   'Zn1 Ga1 P1 S1'
_cell_volume   82.52967537
_cell_formula_units_Z   1
loop_
 _symmetry_equiv_pos_site_id
 _symmetry_equiv_pos_as_xyz
  1  'x, y, z'
loop_
 _atom_site_type_symbol
 _atom_site_label
 _atom_site_symmetry_multiplicity
 _atom_site_fract_x
 _atom_site_fract_y
 _atom_site_fract_z
 _atom_site_occupancy
  Zn  Zn0  1  0.00150100  0.00150100  0.99549700  1.0
  Ga  Ga1  1  0.49886900  0.49886900  0.50339300  1.0
  P  P2  1  0.12593300  0.12593300  0.62220100  1.0
  S  S3  1  0.62369700  0.62369700  0.12890900  1.0
