# generated using pymatgen
data_ZnNi4O5
_symmetry_space_group_name_H-M   'P 1'
_cell_length_a   3.00356400
_cell_length_b   5.20210102
_cell_length_c   6.71478197
_cell_angle_alpha   75.04207198
_cell_angle_beta   77.07631005
_cell_angle_gamma   73.22059982
_symmetry_Int_Tables_number   1
_chemical_formula_structural   ZnNi4O5
_chemical_formula_sum   'Zn1 Ni4 O5'
_cell_volume   95.77691931
_cell_formula_units_Z   1
loop_
 _symmetry_equiv_pos_site_id
 _symmetry_equiv_pos_as_xyz
  1  'x, y, z'
loop_
 _atom_site_type_symbol
 _atom_site_label
 _atom_site_symmetry_multiplicity
 _atom_site_fract_x
 _atom_site_fract_y
 _atom_site_fract_z
 _atom_site_occupancy
  Zn  Zn0  1  0.00000000  0.00000000  0.00000000  1.0
  Ni  Ni1  1  0.59998800  0.20071800  0.59930600  1.0
  Ni  Ni2  1  0.19978500  0.39943100  0.20099900  1.0
  Ni  Ni3  1  0.80021500  0.60056900  0.79900100  1.0
  Ni  Ni4  1  0.40001200  0.79928200  0.40069400  1.0
  O  O5  1  0.00000000  0.50000000  0.50000000  1.0
  O  O6  1  0.60194600  0.69412900  0.10197900  1.0
  O  O7  1  0.20148800  0.89985400  0.69717000  1.0
  O  O8  1  0.79851200  0.10014600  0.30283000  1.0
  O  O9  1  0.39805400  0.30587100  0.89802100  1.0
