# generated using pymatgen
data_ZnS
_symmetry_space_group_name_H-M   'P 1'
_cell_length_a   3.85414892
_cell_length_b   3.85414892
_cell_length_c   25.28356845
_cell_angle_alpha   85.62876212
_cell_angle_beta   85.62876212
_cell_angle_gamma   59.99998418
_symmetry_Int_Tables_number   1
_chemical_formula_structural   ZnS
_chemical_formula_sum   'Zn8 S8'
_cell_volume   323.99433265
_cell_formula_units_Z   8
loop_
 _symmetry_equiv_pos_site_id
 _symmetry_equiv_pos_as_xyz
  1  'x, y, z'
loop_
 _atom_site_type_symbol
 _atom_site_label
 _atom_site_symmetry_multiplicity
 _atom_site_fract_x
 _atom_site_fract_y
 _atom_site_fract_z
 _atom_site_occupancy
  Zn  Zn0  1  0.54167900  0.54167900  0.37496300  1.0
  Zn  Zn1  1  0.00001900  0.00001900  0.99994300  1.0
  Zn  Zn2  1  0.45834700  0.45834700  0.62495900  1.0
  Zn  Zn3  1  0.83335000  0.83335000  0.49995000  1.0
  Zn  Zn4  1  0.62502000  0.62502000  0.12494000  1.0
  Zn  Zn5  1  0.91668200  0.91668200  0.24995400  1.0
  Zn  Zn6  1  0.75000300  0.75000300  0.74999100  1.0
  Zn  Zn7  1  0.37501100  0.37501100  0.87496700  1.0
  S  S8  1  0.65626100  0.65626100  0.03121700  1.0
  S  S9  1  0.57290000  0.57290000  0.28130000  1.0
  S  S10  1  0.48956900  0.48956900  0.53129300  1.0
  S  S11  1  0.86457100  0.86457100  0.40628700  1.0
  S  S12  1  0.78123500  0.78123500  0.65629500  1.0
  S  S13  1  0.40621700  0.40621700  0.78134900  1.0
  S  S14  1  0.03123800  0.03123800  0.90628600  1.0
  S  S15  1  0.94790400  0.94790400  0.15628800  1.0
