# generated using pymatgen
data_Zr10(AlSb)3
_symmetry_space_group_name_H-M   'P 1'
_cell_length_a   5.73504500
_cell_length_b   8.41605510
_cell_length_c   8.41605543
_cell_angle_alpha   119.98242490
_cell_angle_beta   89.99989263
_cell_angle_gamma   89.99989557
_symmetry_Int_Tables_number   1
_chemical_formula_structural   Zr10(AlSb)3
_chemical_formula_sum   'Zr10 Al3 Sb3'
_cell_volume   351.85319952
_cell_formula_units_Z   1
loop_
 _symmetry_equiv_pos_site_id
 _symmetry_equiv_pos_as_xyz
  1  'x, y, z'
loop_
 _atom_site_type_symbol
 _atom_site_label
 _atom_site_symmetry_multiplicity
 _atom_site_fract_x
 _atom_site_fract_y
 _atom_site_fract_z
 _atom_site_occupancy
  Zr  Zr0  1  0.49388100  0.66666667  0.33333333  1.0
  Zr  Zr1  1  0.49388100  0.33333333  0.66666667  1.0
  Zr  Zr2  1  0.00611900  0.33333333  0.66666667  1.0
  Zr  Zr3  1  0.00611900  0.66666667  0.33333333  1.0
  Zr  Zr4  1  0.25000400  0.75035900  0.75035900  1.0
  Zr  Zr5  1  0.24999600  0.24957500  0.00000800  1.0
  Zr  Zr6  1  0.24999600  0.00000800  0.24957500  1.0
  Zr  Zr7  1  0.75000400  0.24942000  0.24942000  1.0
  Zr  Zr8  1  0.74999800  0.75061900  0.00000400  1.0
  Zr  Zr9  1  0.74999800  0.00000400  0.75061900  1.0
  Al  Al10  1  0.25000700  0.38911700  0.38911700  1.0
  Al  Al11  1  0.24999700  0.61088700  0.99999300  1.0
  Al  Al12  1  0.24999700  0.99999300  0.61088700  1.0
  Sb  Sb13  1  0.75000700  0.60701200  0.60701200  1.0
  Sb  Sb14  1  0.74999700  0.39309200  0.00000800  1.0
  Sb  Sb15  1  0.74999700  0.00000800  0.39309200  1.0
