# generated using pymatgen
data_Zr2CoOs
_symmetry_space_group_name_H-M   'P 1'
_cell_length_a   4.60962137
_cell_length_b   4.60963056
_cell_length_c   4.60962137
_cell_angle_alpha   119.98818202
_cell_angle_beta   119.98806528
_cell_angle_gamma   60.01178755
_symmetry_Int_Tables_number   1
_chemical_formula_structural   Zr2CoOs
_chemical_formula_sum   'Zr2 Co1 Os1'
_cell_volume   69.27846482
_cell_formula_units_Z   1
loop_
 _symmetry_equiv_pos_site_id
 _symmetry_equiv_pos_as_xyz
  1  'x, y, z'
loop_
 _atom_site_type_symbol
 _atom_site_label
 _atom_site_symmetry_multiplicity
 _atom_site_fract_x
 _atom_site_fract_y
 _atom_site_fract_z
 _atom_site_occupancy
  Zr  Zr0  1  0.00002000  0.00002000  0.99998000  1.0
  Zr  Zr1  1  0.49998000  0.49998000  0.50002000  1.0
  Co  Co2  1  0.75000000  0.75000000  0.25000000  1.0
  Os  Os3  1  0.25000000  0.25000100  0.75000000  1.0
