# generated using pymatgen
data_Zr2CoSi2
_symmetry_space_group_name_H-M   'P 1'
_cell_length_a   3.89593600
_cell_length_b   5.34218552
_cell_length_c   8.56100005
_cell_angle_alpha   82.47431647
_cell_angle_beta   76.84772903
_cell_angle_gamma   68.61464584
_symmetry_Int_Tables_number   1
_chemical_formula_structural   Zr2CoSi2
_chemical_formula_sum   'Zr4 Co2 Si4'
_cell_volume   161.33215138
_cell_formula_units_Z   2
loop_
 _symmetry_equiv_pos_site_id
 _symmetry_equiv_pos_as_xyz
  1  'x, y, z'
loop_
 _atom_site_type_symbol
 _atom_site_label
 _atom_site_symmetry_multiplicity
 _atom_site_fract_x
 _atom_site_fract_y
 _atom_site_fract_z
 _atom_site_occupancy
  Zr  Zr0  1  0.81261100  0.27250900  0.10226900  1.0
  Zr  Zr1  1  0.18738900  0.72749100  0.89773100  1.0
  Zr  Zr2  1  0.99677800  0.33067400  0.67577000  1.0
  Zr  Zr3  1  0.00322200  0.66932600  0.32423000  1.0
  Co  Co4  1  0.27718400  0.07295300  0.37267900  1.0
  Co  Co5  1  0.72281600  0.92704700  0.62732100  1.0
  Si  Si6  1  0.64368100  0.28162000  0.43101800  1.0
  Si  Si7  1  0.35631900  0.71838000  0.56898200  1.0
  Si  Si8  1  0.51266000  0.85111800  0.12356200  1.0
  Si  Si9  1  0.48734000  0.14888200  0.87643800  1.0
