# generated using pymatgen
data_Zr2InNi2
_symmetry_space_group_name_H-M   'P 1'
_cell_length_a   3.35094850
_cell_length_b   7.23579700
_cell_length_c   7.23579700
_cell_angle_alpha   90.00000000
_cell_angle_beta   90.00000000
_cell_angle_gamma   90.00000000
_symmetry_Int_Tables_number   1
_chemical_formula_structural   Zr2InNi2
_chemical_formula_sum   'Zr4 In2 Ni4'
_cell_volume   175.44480044
_cell_formula_units_Z   2
loop_
 _symmetry_equiv_pos_site_id
 _symmetry_equiv_pos_as_xyz
  1  'x, y, z'
loop_
 _atom_site_type_symbol
 _atom_site_label
 _atom_site_symmetry_multiplicity
 _atom_site_fract_x
 _atom_site_fract_y
 _atom_site_fract_z
 _atom_site_occupancy
  In  In8  1  0.50000000  0.50000000  0.00000000  1.0
  In  In10  1  0.50000000  0.00000000  0.50000000  1.0
  Ni  Ni12  1  0.50000000  0.12515900  0.87484100  1.0
  Ni  Ni14  1  0.50000000  0.62515900  0.62515900  1.0
  Ni  Ni15  1  0.50000000  0.87484100  0.12515900  1.0
  Ni  Ni16  1  0.50000000  0.37484100  0.37484100  1.0
  Zr  Zr0  1  1.00000000  0.83113550  0.83113550  1.0
  Zr  Zr1  1  1.00000000  0.66886450  0.33113550  1.0
  Zr  Zr2  1  1.00000000  0.33113550  0.66886450  1.0
  Zr  Zr3  1  0.00000000  0.16886450  0.16886450  1.0
