# generated using pymatgen
data_Zr2N2O
_symmetry_space_group_name_H-M   'P 1'
_cell_length_a   5.53503900
_cell_length_b   5.53503900
_cell_length_c   5.88633482
_cell_angle_alpha   91.24680715
_cell_angle_beta   117.56744588
_cell_angle_gamma   118.99249446
_symmetry_Int_Tables_number   1
_chemical_formula_structural   Zr2N2O
_chemical_formula_sum   'Zr4 N4 O2'
_cell_volume   132.60134154
_cell_formula_units_Z   2
loop_
 _symmetry_equiv_pos_site_id
 _symmetry_equiv_pos_as_xyz
  1  'x, y, z'
loop_
 _atom_site_type_symbol
 _atom_site_label
 _atom_site_symmetry_multiplicity
 _atom_site_fract_x
 _atom_site_fract_y
 _atom_site_fract_z
 _atom_site_occupancy
  Zr  Zr0  1  0.75601700  0.13434800  0.42592000  1.0
  Zr  Zr1  1  0.79157200  0.66990300  0.92592000  1.0
  Zr  Zr2  1  0.22335200  0.37270700  0.07399200  1.0
  Zr  Zr3  1  0.20128500  0.85064000  0.57399200  1.0
  N  N4  1  0.69466000  0.94769700  0.73536600  1.0
  N  N5  1  0.28766900  0.04070600  0.23536600  1.0
  N  N6  1  0.70779800  0.74437300  0.25328300  1.0
  N  N7  1  0.00891000  0.54548500  0.75328300  1.0
  O  O8  1  0.00988600  0.44258700  0.26144000  1.0
  O  O9  1  0.31885300  0.25155400  0.76144000  1.0
