# generated using pymatgen
data_Zr5Sb3
_symmetry_space_group_name_H-M   'P 1'
_cell_length_a   5.79913300
_cell_length_b   8.51927000
_cell_length_c   8.51927066
_cell_angle_alpha   119.99999745
_cell_angle_beta   90.00000000
_cell_angle_gamma   90.00000000
_symmetry_Int_Tables_number   1
_chemical_formula_structural   Zr5Sb3
_chemical_formula_sum   'Zr10 Sb6'
_cell_volume   364.50082098
_cell_formula_units_Z   2
loop_
 _symmetry_equiv_pos_site_id
 _symmetry_equiv_pos_as_xyz
  1  'x, y, z'
loop_
 _atom_site_type_symbol
 _atom_site_label
 _atom_site_symmetry_multiplicity
 _atom_site_fract_x
 _atom_site_fract_y
 _atom_site_fract_z
 _atom_site_occupancy
  Zr  Zr0  1  0.25000000  0.25257100  1.00000000  1.0
  Zr  Zr1  1  0.25000000  0.74742900  0.74742900  1.0
  Zr  Zr2  1  0.25000000  1.00000000  0.25257100  1.0
  Zr  Zr3  1  0.75000000  0.74742900  1.00000000  1.0
  Zr  Zr4  1  0.75000000  0.25257100  0.25257100  1.0
  Zr  Zr5  1  0.75000000  0.00000000  0.74742900  1.0
  Zr  Zr6  1  0.00000000  0.33333333  0.66666667  1.0
  Zr  Zr7  1  1.00000000  0.66666667  0.33333333  1.0
  Zr  Zr8  1  0.50000000  0.66666667  0.33333333  1.0
  Zr  Zr9  1  0.50000000  0.33333333  0.66666667  1.0
  Sb  Sb10  1  0.25000000  0.61220300  1.00000000  1.0
  Sb  Sb11  1  0.25000000  0.38779700  0.38779700  1.0
  Sb  Sb12  1  0.25000000  0.00000000  0.61220300  1.0
  Sb  Sb13  1  0.75000000  0.38779700  1.00000000  1.0
  Sb  Sb14  1  0.75000000  0.61220300  0.61220300  1.0
  Sb  Sb15  1  0.75000000  0.00000000  0.38779700  1.0
