# generated using pymatgen
data_ZrFeCo
_symmetry_space_group_name_H-M   'P 1'
_cell_length_a   4.86340000
_cell_length_b   4.93795642
_cell_length_c   4.93795642
_cell_angle_alpha   61.41215397
_cell_angle_beta   60.49821462
_cell_angle_gamma   60.49821462
_symmetry_Int_Tables_number   1
_chemical_formula_structural   ZrFeCo
_chemical_formula_sum   'Zr2 Fe2 Co2'
_cell_volume   85.35738970
_cell_formula_units_Z   2
loop_
 _symmetry_equiv_pos_site_id
 _symmetry_equiv_pos_as_xyz
  1  'x, y, z'
loop_
 _atom_site_type_symbol
 _atom_site_label
 _atom_site_symmetry_multiplicity
 _atom_site_fract_x
 _atom_site_fract_y
 _atom_site_fract_z
 _atom_site_occupancy
  Zr  Zr0  1  0.87878500  0.37121500  0.87121500  1.0
  Zr  Zr1  1  0.12121500  0.62878500  0.12878500  1.0
  Fe  Fe2  1  0.00000000  1.00000000  0.50000000  1.0
  Fe  Fe3  1  0.50000000  1.00000000  0.50000000  1.0
  Co  Co4  1  0.50000000  0.50000000  0.50000000  1.0
  Co  Co5  1  0.50000000  1.00000000  0.00000000  1.0
