# generated using pymatgen
data_ZrGaPt
_symmetry_space_group_name_H-M   'P 1'
_cell_length_a   7.14947400
_cell_length_b   7.20972000
_cell_length_c   7.20971942
_cell_angle_alpha   120.00000268
_cell_angle_beta   90.00000000
_cell_angle_gamma   90.00000000
_symmetry_Int_Tables_number   1
_chemical_formula_structural   ZrGaPt
_chemical_formula_sum   'Zr6 Ga6 Pt6'
_cell_volume   321.84107752
_cell_formula_units_Z   6
loop_
 _symmetry_equiv_pos_site_id
 _symmetry_equiv_pos_as_xyz
  1  'x, y, z'
loop_
 _atom_site_type_symbol
 _atom_site_label
 _atom_site_symmetry_multiplicity
 _atom_site_fract_x
 _atom_site_fract_y
 _atom_site_fract_z
 _atom_site_occupancy
  Zr  Zr0  1  0.25000000  0.61324300  0.02172600  1.0
  Zr  Zr1  1  0.25000000  0.97827400  0.59151700  1.0
  Zr  Zr2  1  0.25000000  0.40848300  0.38675700  1.0
  Zr  Zr3  1  0.75000000  0.38675700  0.40848300  1.0
  Zr  Zr4  1  0.75000000  0.02172600  0.61324300  1.0
  Zr  Zr5  1  0.75000000  0.59151700  0.97827400  1.0
  Ga  Ga6  1  0.00000000  0.73268400  0.73268400  1.0
  Ga  Ga7  1  0.00000000  0.26731600  1.00000000  1.0
  Ga  Ga8  1  0.00000000  0.00000000  0.26731600  1.0
  Ga  Ga9  1  0.50000000  0.26731600  1.00000000  1.0
  Ga  Ga10  1  0.50000000  0.73268400  0.73268400  1.0
  Ga  Ga11  1  0.50000000  0.00000000  0.26731600  1.0
  Pt  Pt12  1  0.03057500  0.33333333  0.66666667  1.0
  Pt  Pt13  1  0.25000000  0.00000000  0.00000000  1.0
  Pt  Pt14  1  0.46942500  0.33333333  0.66666667  1.0
  Pt  Pt15  1  0.53057500  0.66666667  0.33333333  1.0
  Pt  Pt16  1  0.96942500  0.66666667  0.33333333  1.0
  Pt  Pt17  1  0.75000000  0.00000000  0.00000000  1.0
