# generated using pymatgen
data_ZrI3
_symmetry_space_group_name_H-M   'P 1'
_cell_length_a   6.66040900
_cell_length_b   8.12532400
_cell_length_c   8.13148958
_cell_angle_alpha   119.97492095
_cell_angle_beta   90.00000000
_cell_angle_gamma   90.00000000
_symmetry_Int_Tables_number   1
_chemical_formula_structural   ZrI3
_chemical_formula_sum   'Zr2 I6'
_cell_volume   381.19923880
_cell_formula_units_Z   2
loop_
 _symmetry_equiv_pos_site_id
 _symmetry_equiv_pos_as_xyz
  1  'x, y, z'
loop_
 _atom_site_type_symbol
 _atom_site_label
 _atom_site_symmetry_multiplicity
 _atom_site_fract_x
 _atom_site_fract_y
 _atom_site_fract_z
 _atom_site_occupancy
  I  I4  1  1.00000000  0.25003650  0.29615200  1.0
  I  I5  1  1.00000000  0.54667400  0.00000000  1.0
  I  I6  1  1.00000000  0.95388450  0.70384800  1.0
  I  I8  1  0.50000000  0.24996350  0.70384800  1.0
  I  I9  1  0.50000000  0.54611550  0.29615200  1.0
  I  I10  1  0.50000000  0.95332600  0.00000000  1.0
  Zr  Zr0  1  0.25000000  0.25000000  0.00000000  1.0
  Zr  Zr1  1  0.75000000  0.25000000  0.00000000  1.0
