# generated using pymatgen
data_ZrIn3
_symmetry_space_group_name_H-M   'P 1'
_cell_length_a   4.37958200
_cell_length_b   4.37958200
_cell_length_c   10.08715689
_cell_angle_alpha   102.53799804
_cell_angle_beta   102.53799804
_cell_angle_gamma   90.00000002
_symmetry_Int_Tables_number   1
_chemical_formula_structural   ZrIn3
_chemical_formula_sum   'Zr2 In6'
_cell_volume   184.13545424
_cell_formula_units_Z   2
loop_
 _symmetry_equiv_pos_site_id
 _symmetry_equiv_pos_as_xyz
  1  'x, y, z'
loop_
 _atom_site_type_symbol
 _atom_site_label
 _atom_site_symmetry_multiplicity
 _atom_site_fract_x
 _atom_site_fract_y
 _atom_site_fract_z
 _atom_site_occupancy
  Zr  Zr0  1  0.88114900  0.88114900  0.76229800  1.0
  Zr  Zr1  1  0.11885100  0.11885100  0.23770200  1.0
  In  In2  1  1.00000000  0.50000000  1.00000000  1.0
  In  In3  1  0.50000000  1.00000000  1.00000000  1.0
  In  In4  1  0.75000000  0.25000000  0.50000000  1.0
  In  In5  1  0.25000000  0.75000000  0.50000000  1.0
  In  In6  1  0.62478200  0.62478200  0.24956400  1.0
  In  In7  1  0.37521800  0.37521800  0.75043600  1.0
