# generated using pymatgen
data_ZrMn6(GaSn2)2
_symmetry_space_group_name_H-M   'P 1'
_cell_length_a   5.31187600
_cell_length_b   5.31187552
_cell_length_c   8.98679200
_cell_angle_alpha   90.00000000
_cell_angle_beta   90.00000000
_cell_angle_gamma   120.00000301
_symmetry_Int_Tables_number   1
_chemical_formula_structural   ZrMn6(GaSn2)2
_chemical_formula_sum   'Zr1 Mn6 Ga2 Sn4'
_cell_volume   219.59938841
_cell_formula_units_Z   1
loop_
 _symmetry_equiv_pos_site_id
 _symmetry_equiv_pos_as_xyz
  1  'x, y, z'
loop_
 _atom_site_type_symbol
 _atom_site_label
 _atom_site_symmetry_multiplicity
 _atom_site_fract_x
 _atom_site_fract_y
 _atom_site_fract_z
 _atom_site_occupancy
  Zr  Zr0  1  0.00000000  0.00000000  0.50000000  1.0
  Mn  Mn1  1  0.50000000  1.00000000  0.25116300  1.0
  Mn  Mn2  1  0.50000000  0.50000000  0.25116300  1.0
  Mn  Mn3  1  1.00000000  0.50000000  0.25116300  1.0
  Mn  Mn4  1  0.50000000  1.00000000  0.74883700  1.0
  Mn  Mn5  1  0.50000000  0.50000000  0.74883700  1.0
  Mn  Mn6  1  1.00000000  0.50000000  0.74883700  1.0
  Ga  Ga7  1  0.00000000  0.00000000  0.18894300  1.0
  Ga  Ga8  1  0.00000000  0.00000000  0.81105700  1.0
  Sn  Sn9  1  0.33333333  0.66666667  1.00000000  1.0
  Sn  Sn10  1  0.66666667  0.33333333  1.00000000  1.0
  Sn  Sn11  1  0.33333333  0.66666667  0.50000000  1.0
  Sn  Sn12  1  0.66666667  0.33333333  0.50000000  1.0
