# generated using pymatgen
data_ZrNiH3
_symmetry_space_group_name_H-M   'P 1'
_cell_length_a   3.51597400
_cell_length_b   4.33167500
_cell_length_c   5.54585035
_cell_angle_alpha   90.00000000
_cell_angle_beta   108.48107617
_cell_angle_gamma   90.00000000
_symmetry_Int_Tables_number   1
_chemical_formula_structural   ZrNiH3
_chemical_formula_sum   'Zr2 Ni2 H6'
_cell_volume   80.10769164
_cell_formula_units_Z   2
loop_
 _symmetry_equiv_pos_site_id
 _symmetry_equiv_pos_as_xyz
  1  'x, y, z'
loop_
 _atom_site_type_symbol
 _atom_site_label
 _atom_site_symmetry_multiplicity
 _atom_site_fract_x
 _atom_site_fract_y
 _atom_site_fract_z
 _atom_site_occupancy
  Zr  Zr0  1  0.85979600  0.75000000  0.71959200  1.0
  Zr  Zr1  1  0.14020400  0.25000000  0.28040800  1.0
  Ni  Ni2  1  0.56880700  0.75000000  0.13761400  1.0
  Ni  Ni3  1  0.43119300  0.25000000  0.86238600  1.0
  H  H4  1  0.06824200  0.75000000  0.13648400  1.0
  H  H5  1  0.93175800  0.25000000  0.86351600  1.0
  H  H6  1  0.68667500  0.49681800  0.37335000  1.0
  H  H7  1  0.31332500  0.50318200  0.62665000  1.0
  H  H8  1  0.68667500  0.00318200  0.37335000  1.0
  H  H9  1  0.31332500  0.99681800  0.62665000  1.0
