# generated using pymatgen
data_ZrTi2Al
_symmetry_space_group_name_H-M   'P 1'
_cell_length_a   4.79499600
_cell_length_b   5.93029690
_cell_length_c   5.93029690
_cell_angle_alpha   119.94040478
_cell_angle_beta   90.00000000
_cell_angle_gamma   90.00000000
_symmetry_Int_Tables_number   1
_chemical_formula_structural   ZrTi2Al
_chemical_formula_sum   'Zr2 Ti4 Al2'
_cell_volume   146.12759762
_cell_formula_units_Z   2
loop_
 _symmetry_equiv_pos_site_id
 _symmetry_equiv_pos_as_xyz
  1  'x, y, z'
loop_
 _atom_site_type_symbol
 _atom_site_label
 _atom_site_symmetry_multiplicity
 _atom_site_fract_x
 _atom_site_fract_y
 _atom_site_fract_z
 _atom_site_occupancy
  Zr  Zr0  1  0.50000000  0.16638500  0.33574400  1.0
  Zr  Zr1  1  0.50000000  0.66425600  0.83361500  1.0
  Ti  Ti2  1  0.50000000  0.16900400  0.83099600  1.0
  Ti  Ti3  1  0.00000000  0.83530300  0.65568300  1.0
  Ti  Ti4  1  0.00000000  0.34431700  0.16469700  1.0
  Ti  Ti5  1  0.00000000  0.82592400  0.17407600  1.0
  Al  Al6  1  0.50000000  0.66627600  0.33372400  1.0
  Al  Al7  1  0.00000000  0.32874100  0.67125900  1.0
