# generated using pymatgen
data_ZrTi(NiH3)2
_symmetry_space_group_name_H-M   'P 1'
_cell_length_a   3.44165400
_cell_length_b   4.27558400
_cell_length_c   5.43466180
_cell_angle_alpha   90.00000000
_cell_angle_beta   108.45979958
_cell_angle_gamma   90.00000000
_symmetry_Int_Tables_number   1
_chemical_formula_structural   ZrTi(NiH3)2
_chemical_formula_sum   'Zr1 Ti1 Ni2 H6'
_cell_volume   75.85663857
_cell_formula_units_Z   1
loop_
 _symmetry_equiv_pos_site_id
 _symmetry_equiv_pos_as_xyz
  1  'x, y, z'
loop_
 _atom_site_type_symbol
 _atom_site_label
 _atom_site_symmetry_multiplicity
 _atom_site_fract_x
 _atom_site_fract_y
 _atom_site_fract_z
 _atom_site_occupancy
  Zr  Zr0  1  0.14193300  1.00000000  0.28386600  1.0
  Ti  Ti1  1  0.85868100  0.50000000  0.71736200  1.0
  Ni  Ni2  1  0.56575300  0.50000000  0.13150600  1.0
  Ni  Ni3  1  0.42711800  1.00000000  0.85423600  1.0
  H  H4  1  0.69348200  0.74284500  0.38696400  1.0
  H  H5  1  0.31621600  0.72621700  0.63243200  1.0
  H  H6  1  0.69348200  0.25715500  0.38696400  1.0
  H  H7  1  0.31621600  0.27378300  0.63243200  1.0
  H  H8  1  0.06012800  0.50000000  0.12025600  1.0
  H  H9  1  0.92699000  1.00000000  0.85398000  1.0
