# generated using pymatgen
data_ZrTi3As2
_symmetry_space_group_name_H-M   'P 1'
_cell_length_a   3.74051200
_cell_length_b   3.74051200
_cell_length_c   7.77394071
_cell_angle_alpha   103.92078514
_cell_angle_beta   103.92078516
_cell_angle_gamma   89.99999998
_symmetry_Int_Tables_number   1
_chemical_formula_structural   ZrTi3As2
_chemical_formula_sum   'Zr1 Ti3 As2'
_cell_volume   102.27959189
_cell_formula_units_Z   1
loop_
 _symmetry_equiv_pos_site_id
 _symmetry_equiv_pos_as_xyz
  1  'x, y, z'
loop_
 _atom_site_type_symbol
 _atom_site_label
 _atom_site_symmetry_multiplicity
 _atom_site_fract_x
 _atom_site_fract_y
 _atom_site_fract_z
 _atom_site_occupancy
  Zr  Zr0  1  0.68109600  0.68109600  0.36219200  1.0
  Ti  Ti1  1  0.99800900  0.49800900  0.99601800  1.0
  Ti  Ti2  1  0.49800900  0.99800900  0.99601800  1.0
  Ti  Ti3  1  0.32311800  0.32311800  0.64623600  1.0
  As  As4  1  0.86747500  0.86747500  0.73495000  1.0
  As  As5  1  0.13229400  0.13229400  0.26458800  1.0
