# generated using pymatgen
data_ZrVCo
_symmetry_space_group_name_H-M   'P 1'
_cell_length_a   5.10795817
_cell_length_b   5.10806411
_cell_length_c   8.05905300
_cell_angle_alpha   90.00000000
_cell_angle_beta   90.00000000
_cell_angle_gamma   119.96935828
_symmetry_Int_Tables_number   1
_chemical_formula_structural   ZrVCo
_chemical_formula_sum   'Zr4 V4 Co4'
_cell_volume   182.15971061
_cell_formula_units_Z   4
loop_
 _symmetry_equiv_pos_site_id
 _symmetry_equiv_pos_as_xyz
  1  'x, y, z'
loop_
 _atom_site_type_symbol
 _atom_site_label
 _atom_site_symmetry_multiplicity
 _atom_site_fract_x
 _atom_site_fract_y
 _atom_site_fract_z
 _atom_site_occupancy
  Zr  Zr0  1  0.33587000  0.66412300  0.42804700  1.0
  Zr  Zr1  1  0.66687200  0.33310100  0.55333800  1.0
  Zr  Zr2  1  0.66687200  0.33310100  0.94666200  1.0
  Zr  Zr3  1  0.33587000  0.66412300  0.07195300  1.0
  V  V4  1  0.16264200  0.34075600  0.75000000  1.0
  V  V5  1  0.65926400  0.83728800  0.75000000  1.0
  V  V6  1  0.00352000  0.99654300  0.48781500  1.0
  V  V7  1  0.00352000  0.99654300  0.01218500  1.0
  Co  Co8  1  0.82808500  0.17198500  0.25000000  1.0
  Co  Co9  1  0.83168900  0.66054100  0.25000000  1.0
  Co  Co10  1  0.33952100  0.16823900  0.25000000  1.0
  Co  Co11  1  0.16627400  0.83365600  0.75000000  1.0
