# generated using pymatgen
data_ZrVMo
_symmetry_space_group_name_H-M   'P 1'
_cell_length_a   5.27005000
_cell_length_b   5.29619739
_cell_length_c   5.29619739
_cell_angle_alpha   60.80281708
_cell_angle_beta   60.16318111
_cell_angle_gamma   60.16318111
_symmetry_Int_Tables_number   1
_chemical_formula_structural   ZrVMo
_chemical_formula_sum   'Zr2 V2 Mo2'
_cell_volume   105.40806828
_cell_formula_units_Z   2
loop_
 _symmetry_equiv_pos_site_id
 _symmetry_equiv_pos_as_xyz
  1  'x, y, z'
loop_
 _atom_site_type_symbol
 _atom_site_label
 _atom_site_symmetry_multiplicity
 _atom_site_fract_x
 _atom_site_fract_y
 _atom_site_fract_z
 _atom_site_occupancy
  Zr  Zr0  1  0.12545800  0.12454200  0.62454200  1.0
  Zr  Zr1  1  0.87454200  0.87545800  0.37545800  1.0
  V  V2  1  0.50000000  0.50000000  0.50000000  1.0
  V  V3  1  0.50000000  0.00000000  0.00000000  1.0
  Mo  Mo4  1  1.00000000  0.50000000  0.00000000  1.0
  Mo  Mo5  1  0.50000000  0.50000000  0.00000000  1.0
