# generated using pymatgen
data_Ac2CdHg
_symmetry_space_group_name_H-M   'P 1'
_cell_length_a   5.70823908
_cell_length_b   5.72881222
_cell_length_c   5.71220398
_cell_angle_alpha   59.97948074
_cell_angle_beta   59.84538651
_cell_angle_gamma   59.83493423
_symmetry_Int_Tables_number   1
_chemical_formula_structural   Ac2CdHg
_chemical_formula_sum   'Ac2 Cd1 Hg1'
_cell_volume   131.74522923
_cell_formula_units_Z   1
loop_
 _symmetry_equiv_pos_site_id
 _symmetry_equiv_pos_as_xyz
  1  'x, y, z'
loop_
 _atom_site_type_symbol
 _atom_site_label
 _atom_site_symmetry_multiplicity
 _atom_site_fract_x
 _atom_site_fract_y
 _atom_site_fract_z
 _atom_site_occupancy
  Ac  Ac0  1  0.70783687  0.85330975  0.96163267  1
  Ac  Ac1  1  0.20829611  0.35320795  0.46191666  1
  Cd  Cd2  1  0.45786595  0.60324520  0.71207595  1
  Hg  Hg3  1  0.95837641  0.10339675  0.21193328  1
