# generated using pymatgen
data_Ac2CdGe
_symmetry_space_group_name_H-M   'P 1'
_cell_length_a   5.61676264
_cell_length_b   5.61909342
_cell_length_c   5.61354923
_cell_angle_alpha   59.83340073
_cell_angle_beta   59.79186630
_cell_angle_gamma   59.86690521
_symmetry_Int_Tables_number   1
_chemical_formula_structural   Ac2CdGe
_chemical_formula_sum   'Ac2 Cd1 Ge1'
_cell_volume   124.79659146
_cell_formula_units_Z   1
loop_
 _symmetry_equiv_pos_site_id
 _symmetry_equiv_pos_as_xyz
  1  'x, y, z'
loop_
 _atom_site_type_symbol
 _atom_site_label
 _atom_site_symmetry_multiplicity
 _atom_site_fract_x
 _atom_site_fract_y
 _atom_site_fract_z
 _atom_site_occupancy
  Ac  Ac0  1  0.43336758  0.01094300  0.29663965  1
  Ac  Ac1  1  0.93319744  0.51068300  0.79653859  1
  Cd  Cd2  1  0.18355930  0.76090235  0.04625348  1
  Ge  Ge3  1  0.68347752  0.26058504  0.54657137  1
