# generated using pymatgen
data_Ac2CuSi
_symmetry_space_group_name_H-M   'P 1'
_cell_length_a   5.42795181
_cell_length_b   5.41316986
_cell_length_c   5.41130781
_cell_angle_alpha   59.92462158
_cell_angle_beta   59.97037506
_cell_angle_gamma   60.08259583
_symmetry_Int_Tables_number   1
_chemical_formula_structural   Ac2CuSi
_chemical_formula_sum   'Ac2 Cu1 Si1'
_cell_volume   112.40860923
_cell_formula_units_Z   1
loop_
 _symmetry_equiv_pos_site_id
 _symmetry_equiv_pos_as_xyz
  1  'x, y, z'
loop_
 _atom_site_type_symbol
 _atom_site_label
 _atom_site_symmetry_multiplicity
 _atom_site_fract_x
 _atom_site_fract_y
 _atom_site_fract_z
 _atom_site_occupancy
  Ac  Ac0  1  0.91850471  0.06826332  0.04389569  1
  Ac  Ac1  1  0.41899270  0.56824696  0.54387301  1
  Cu  Cu2  1  0.66893655  0.81797093  0.79341668  1
  Si  Si3  1  0.16867594  0.31798062  0.29382843  1
