# generated using pymatgen
data_AcLaCd2
_symmetry_space_group_name_H-M   'P 1'
_cell_length_a   5.62443542
_cell_length_b   5.61657095
_cell_length_c   5.61477041
_cell_angle_alpha   59.82727432
_cell_angle_beta   59.97151566
_cell_angle_gamma   60.13511658
_symmetry_Int_Tables_number   1
_chemical_formula_structural   AcLaCd2
_chemical_formula_sum   'Ac1 La1 Cd2'
_cell_volume   125.35564390
_cell_formula_units_Z   1
loop_
 _symmetry_equiv_pos_site_id
 _symmetry_equiv_pos_as_xyz
  1  'x, y, z'
loop_
 _atom_site_type_symbol
 _atom_site_label
 _atom_site_symmetry_multiplicity
 _atom_site_fract_x
 _atom_site_fract_y
 _atom_site_fract_z
 _atom_site_occupancy
  Ac  Ac0  1  0.33156785  0.40591133  0.01933221  1
  La  La1  1  0.83168662  0.90586209  0.51918763  1
  Cd  Cd2  1  0.58183354  0.65526086  0.26889607  1
  Cd  Cd3  1  0.08152974  0.15505244  0.76932377  1
