# generated using pymatgen
data_AcOF
_symmetry_space_group_name_H-M   'P 1'
_cell_length_a   4.25889301
_cell_length_b   4.29010153
_cell_length_c   4.25557661
_cell_angle_alpha   59.52245712
_cell_angle_beta   60.00458527
_cell_angle_gamma   59.94190979
_symmetry_Int_Tables_number   1
_chemical_formula_structural   AcOF
_chemical_formula_sum   'Ac1 O1 F1'
_cell_volume   54.75717663
_cell_formula_units_Z   1
loop_
 _symmetry_equiv_pos_site_id
 _symmetry_equiv_pos_as_xyz
  1  'x, y, z'
loop_
 _atom_site_type_symbol
 _atom_site_label
 _atom_site_symmetry_multiplicity
 _atom_site_fract_x
 _atom_site_fract_y
 _atom_site_fract_z
 _atom_site_occupancy
  Ac  Ac0  1  0.85244721  0.41887924  0.32220075  1
  O  O1  1  0.10153037  0.66907340  0.57239509  1
  F  F2  1  0.60181159  0.16880609  0.07127693  1
