# generated using pymatgen
data_AcPm3
_symmetry_space_group_name_H-M   'P 1'
_cell_length_a   5.37579250
_cell_length_b   5.37744522
_cell_length_c   5.37524462
_cell_angle_alpha   89.84605408
_cell_angle_beta   89.84677887
_cell_angle_gamma   89.93308258
_symmetry_Int_Tables_number   1
_chemical_formula_structural   AcPm3
_chemical_formula_sum   'Ac1 Pm3'
_cell_volume   155.38650989
_cell_formula_units_Z   1
loop_
 _symmetry_equiv_pos_site_id
 _symmetry_equiv_pos_as_xyz
  1  'x, y, z'
loop_
 _atom_site_type_symbol
 _atom_site_label
 _atom_site_symmetry_multiplicity
 _atom_site_fract_x
 _atom_site_fract_y
 _atom_site_fract_z
 _atom_site_occupancy
  Ac  Ac0  1  0.52865052  0.83460224  0.59039420  1
  Pm  Pm1  1  0.02917245  0.33462259  0.59012598  1
  Pm  Pm2  1  0.02841524  0.83483410  0.09040871  1
  Pm  Pm3  1  0.52888447  0.33487725  0.09001635  1
