# generated using pymatgen
data_AcTe3
_symmetry_space_group_name_H-M   'P 1'
_cell_length_a   5.02115822
_cell_length_b   5.02709484
_cell_length_c   5.05408812
_cell_angle_alpha   89.95230103
_cell_angle_beta   89.81188965
_cell_angle_gamma   90.02548218
_symmetry_Int_Tables_number   1
_chemical_formula_structural   AcTe3
_chemical_formula_sum   'Ac1 Te3'
_cell_volume   127.57373182
_cell_formula_units_Z   1
loop_
 _symmetry_equiv_pos_site_id
 _symmetry_equiv_pos_as_xyz
  1  'x, y, z'
loop_
 _atom_site_type_symbol
 _atom_site_label
 _atom_site_symmetry_multiplicity
 _atom_site_fract_x
 _atom_site_fract_y
 _atom_site_fract_z
 _atom_site_occupancy
  Ac  Ac0  1  0.73469931  0.39071658  0.21785936  1
  Te  Te1  1  0.23458298  0.39149216  0.71805280  1
  Te  Te2  1  0.73479009  0.89099056  0.71824872  1
  Te  Te3  1  0.23422422  0.89051288  0.21778989  1
