# generated using pymatgen
data_Ag2S
_symmetry_space_group_name_H-M   'P 1'
_cell_length_a   5.22115946
_cell_length_b   6.83640003
_cell_length_c   7.36048222
_cell_angle_alpha   89.88516235
_cell_angle_beta   89.90422821
_cell_angle_gamma   89.97404480
_symmetry_Int_Tables_number   1
_chemical_formula_structural   Ag2S
_chemical_formula_sum   'Ag8 S4'
_cell_volume   262.72365018
_cell_formula_units_Z   4
loop_
 _symmetry_equiv_pos_site_id
 _symmetry_equiv_pos_as_xyz
  1  'x, y, z'
loop_
 _atom_site_type_symbol
 _atom_site_label
 _atom_site_symmetry_multiplicity
 _atom_site_fract_x
 _atom_site_fract_y
 _atom_site_fract_z
 _atom_site_occupancy
  Ag  Ag0  1  0.73422718  0.76169550  0.67174917  1
  Ag  Ag1  1  0.73508143  0.26288587  0.88515812  1
  Ag  Ag2  1  0.73386389  0.26296273  0.36370659  1
  Ag  Ag3  1  0.23380573  0.92706460  0.86334819  1
  Ag  Ag4  1  0.73415107  0.76400882  0.17299715  1
  Ag  Ag5  1  0.23440653  0.42701739  0.67194086  1
  Ag  Ag6  1  0.23412815  0.92665523  0.38535061  1
  Ag  Ag7  1  0.23443948  0.42742160  0.17283365  1
  S  S8  1  0.96813595  0.59426439  0.92458522  1
  S  S9  1  0.46865550  0.59465510  0.42528361  1
  S  S10  1  0.46845698  0.09400800  0.11699303  1
  S  S11  1  0.96814597  0.09591172  0.61706287  1
