# generated using pymatgen
data_Ag3AsS3
_symmetry_space_group_name_H-M   'P 1'
_cell_length_a   6.51556396
_cell_length_b   6.77083158
_cell_length_c   7.39899302
_cell_angle_alpha   107.89388275
_cell_angle_beta   90.31707001
_cell_angle_gamma   91.09083557
_symmetry_Int_Tables_number   1
_chemical_formula_structural   Ag3AsS3
_chemical_formula_sum   'Ag6 As2 S6'
_cell_volume   310.54439554
_cell_formula_units_Z   2
loop_
 _symmetry_equiv_pos_site_id
 _symmetry_equiv_pos_as_xyz
  1  'x, y, z'
loop_
 _atom_site_type_symbol
 _atom_site_label
 _atom_site_symmetry_multiplicity
 _atom_site_fract_x
 _atom_site_fract_y
 _atom_site_fract_z
 _atom_site_occupancy
  Ag  Ag0  1  0.76689392  0.97039938  0.81996089  1
  Ag  Ag1  1  0.90477121  0.96408963  0.30618623  1
  Ag  Ag2  1  0.76013273  0.39511451  0.55602390  1
  Ag  Ag3  1  0.26356766  0.09707088  0.03468885  1
  Ag  Ag4  1  0.40283176  0.57269996  0.23579785  1
  Ag  Ag5  1  0.27096707  0.47977927  0.75760102  1
  As  As6  1  0.87201220  0.48006225  0.06233571  1
  As  As7  1  0.37183130  0.97916198  0.56014836  1
  S  S8  1  0.49757546  0.69223678  0.60698742  1
  S  S9  1  0.59065479  0.33454609  0.93999499  1
  S  S10  1  0.09128039  0.09000550  0.67184579  1
  S  S11  1  0.99774927  0.72343022  0.95893008  1
  S  S12  1  0.00053458  0.36505532  0.28113881  1
  S  S13  1  0.49858743  0.99754864  0.29254365  1
