# generated using pymatgen
data_Ag3Pd
_symmetry_space_group_name_H-M   'P 1'
_cell_length_a   4.09522676
_cell_length_b   4.08568811
_cell_length_c   4.95960617
_cell_angle_alpha   114.03060913
_cell_angle_beta   114.52535248
_cell_angle_gamma   89.94497681
_symmetry_Int_Tables_number   1
_chemical_formula_structural   Ag3Pd
_chemical_formula_sum   'Ag3 Pd1'
_cell_volume   67.52751624
_cell_formula_units_Z   1
loop_
 _symmetry_equiv_pos_site_id
 _symmetry_equiv_pos_as_xyz
  1  'x, y, z'
loop_
 _atom_site_type_symbol
 _atom_site_label
 _atom_site_symmetry_multiplicity
 _atom_site_fract_x
 _atom_site_fract_y
 _atom_site_fract_z
 _atom_site_occupancy
  Ag  Ag0  1  0.79242086  0.47576699  0.18955907  1
  Ag  Ag1  1  0.29218921  0.97579032  0.18984666  1
  Ag  Ag2  1  0.04264214  0.22605126  0.69028020  1
  Pd  Pd3  1  0.54251087  0.72557193  0.69014168  1
