# generated using pymatgen
data_AgBiS2
_symmetry_space_group_name_H-M   'P 1'
_cell_length_a   4.00381136
_cell_length_b   3.99567986
_cell_length_c   5.56199217
_cell_angle_alpha   89.75647736
_cell_angle_beta   89.82933044
_cell_angle_gamma   89.51741791
_symmetry_Int_Tables_number   1
_chemical_formula_structural   AgBiS2
_chemical_formula_sum   'Ag1 Bi1 S2'
_cell_volume   88.97611849
_cell_formula_units_Z   1
loop_
 _symmetry_equiv_pos_site_id
 _symmetry_equiv_pos_as_xyz
  1  'x, y, z'
loop_
 _atom_site_type_symbol
 _atom_site_label
 _atom_site_symmetry_multiplicity
 _atom_site_fract_x
 _atom_site_fract_y
 _atom_site_fract_z
 _atom_site_occupancy
  Ag  Ag0  1  0.13974980  0.22430040  0.08787414  1
  Bi  Bi1  1  0.63968134  0.72450531  0.58804905  1
  S  S2  1  0.64002836  0.72464430  0.08718568  1
  S  S3  1  0.13926476  0.22406070  0.58708948  1
