# generated using pymatgen
data_AgBr
_symmetry_space_group_name_H-M   'P 1'
_cell_length_a   3.86439776
_cell_length_b   3.94082260
_cell_length_c   3.73645401
_cell_angle_alpha   88.86717987
_cell_angle_beta   88.73564911
_cell_angle_gamma   118.36316681
_symmetry_Int_Tables_number   1
_chemical_formula_structural   AgBr
_chemical_formula_sum   'Ag1 Br1'
_cell_volume   50.02944760
_cell_formula_units_Z   1
loop_
 _symmetry_equiv_pos_site_id
 _symmetry_equiv_pos_as_xyz
  1  'x, y, z'
loop_
 _atom_site_type_symbol
 _atom_site_label
 _atom_site_symmetry_multiplicity
 _atom_site_fract_x
 _atom_site_fract_y
 _atom_site_fract_z
 _atom_site_occupancy
  Ag  Ag0  1  0.07925409  0.13727689  0.75308073  1
  Br  Br1  1  0.74507380  0.47069770  0.25238469  1
