# generated using pymatgen
data_AgI2
_symmetry_space_group_name_H-M   'P 1'
_cell_length_a   4.40592194
_cell_length_b   4.38340712
_cell_length_c   6.71328163
_cell_angle_alpha   89.94091034
_cell_angle_beta   90.07984161
_cell_angle_gamma   119.85305023
_symmetry_Int_Tables_number   1
_chemical_formula_structural   AgI2
_chemical_formula_sum   'Ag1 I2'
_cell_volume   112.44880254
_cell_formula_units_Z   1
loop_
 _symmetry_equiv_pos_site_id
 _symmetry_equiv_pos_as_xyz
  1  'x, y, z'
loop_
 _atom_site_type_symbol
 _atom_site_label
 _atom_site_symmetry_multiplicity
 _atom_site_fract_x
 _atom_site_fract_y
 _atom_site_fract_z
 _atom_site_occupancy
  Ag  Ag0  1  0.99704832  0.71122879  0.74173939  1
  I  I1  1  0.32964301  0.37999582  0.98158747  1
  I  I2  1  0.66342461  0.04601992  0.48462203  1
