# generated using pymatgen
data_Al12Mo
_symmetry_space_group_name_H-M   'P 1'
_cell_length_a   6.44210958
_cell_length_b   6.44446564
_cell_length_c   6.43747187
_cell_angle_alpha   108.86538696
_cell_angle_beta   109.05458069
_cell_angle_gamma   109.48657990
_symmetry_Int_Tables_number   1
_chemical_formula_structural   Al12Mo
_chemical_formula_sum   'Al12 Mo1'
_cell_volume   208.24814705
_cell_formula_units_Z   1
loop_
 _symmetry_equiv_pos_site_id
 _symmetry_equiv_pos_as_xyz
  1  'x, y, z'
loop_
 _atom_site_type_symbol
 _atom_site_label
 _atom_site_symmetry_multiplicity
 _atom_site_fract_x
 _atom_site_fract_y
 _atom_site_fract_z
 _atom_site_occupancy
  Al  Al0  1  0.86114115  0.57304209  0.26026800  1
  Al  Al1  1  0.53051847  0.80043554  0.32639039  1
  Al  Al2  1  0.93560541  0.24899662  0.48513654  1
  Al  Al3  1  0.16603935  0.33474031  0.18223666  1
  Al  Al4  1  0.45924404  0.10380713  0.10478060  1
  Al  Al5  1  0.78124493  0.88032520  0.02546896  1
  Al  Al6  1  0.39408568  0.41434443  0.86372179  1
  Al  Al7  1  0.99735743  0.95550662  0.69953007  1
  Al  Al8  1  0.31078306  0.74243385  0.64280319  1
  Al  Al9  1  0.68933451  0.18063824  0.79432636  1
  Al  Al10  1  0.61012644  0.47557551  0.55760485  1
  Al  Al11  1  0.07398001  0.65136051  0.94866377  1
  Mo  Mo12  1  0.24063979  0.03289139  0.40441501  1
