# generated using pymatgen
data_Al2Ru
_symmetry_space_group_name_H-M   'P 1'
_cell_length_a   3.11644220
_cell_length_b   3.12524009
_cell_length_c   4.93447924
_cell_angle_alpha   108.67564392
_cell_angle_beta   108.76510620
_cell_angle_gamma   90.38478088
_symmetry_Int_Tables_number   1
_chemical_formula_structural   Al2Ru
_chemical_formula_sum   'Al2 Ru1'
_cell_volume   42.78562717
_cell_formula_units_Z   1
loop_
 _symmetry_equiv_pos_site_id
 _symmetry_equiv_pos_as_xyz
  1  'x, y, z'
loop_
 _atom_site_type_symbol
 _atom_site_label
 _atom_site_symmetry_multiplicity
 _atom_site_fract_x
 _atom_site_fract_y
 _atom_site_fract_z
 _atom_site_occupancy
  Al  Al0  1  0.43404388  0.45267323  0.89099693  1
  Al  Al1  1  0.75374049  0.77318442  0.52964723  1
  Ru  Ru2  1  0.09120139  0.11124073  0.21114062  1
