# generated using pymatgen
data_Al2ZnSe4
_symmetry_space_group_name_H-M   'P 1'
_cell_length_a   5.65841341
_cell_length_b   5.66850853
_cell_length_c   6.89793205
_cell_angle_alpha   114.47550964
_cell_angle_beta   114.44963074
_cell_angle_gamma   90.04910278
_symmetry_Int_Tables_number   1
_chemical_formula_structural   Al2ZnSe4
_chemical_formula_sum   'Al2 Zn1 Se4'
_cell_volume   179.30085926
_cell_formula_units_Z   1
loop_
 _symmetry_equiv_pos_site_id
 _symmetry_equiv_pos_as_xyz
  1  'x, y, z'
loop_
 _atom_site_type_symbol
 _atom_site_label
 _atom_site_symmetry_multiplicity
 _atom_site_fract_x
 _atom_site_fract_y
 _atom_site_fract_z
 _atom_site_occupancy
  Al  Al0  1  0.95777404  0.73082232  0.18173085  1
  Al  Al1  1  0.45809945  0.23106223  0.18208195  1
  Zn  Zn2  1  0.70810676  0.98157990  0.68252254  1
  Se  Se3  1  0.84318560  0.12002771  0.43207979  1
  Se  Se4  1  0.09214138  0.84335119  0.92947274  1
  Se  Se5  1  0.31439793  0.59288788  0.43213847  1
  Se  Se6  1  0.56731653  0.36811915  0.93294770  1
