# generated using pymatgen
data_AlAg
_symmetry_space_group_name_H-M   'P 1'
_cell_length_a   3.24768686
_cell_length_b   3.20968509
_cell_length_c   3.19090438
_cell_angle_alpha   89.44432068
_cell_angle_beta   90.18451691
_cell_angle_gamma   89.95441437
_symmetry_Int_Tables_number   1
_chemical_formula_structural   AlAg
_chemical_formula_sum   'Al1 Ag1'
_cell_volume   33.26040532
_cell_formula_units_Z   1
loop_
 _symmetry_equiv_pos_site_id
 _symmetry_equiv_pos_as_xyz
  1  'x, y, z'
loop_
 _atom_site_type_symbol
 _atom_site_label
 _atom_site_symmetry_multiplicity
 _atom_site_fract_x
 _atom_site_fract_y
 _atom_site_fract_z
 _atom_site_occupancy
  Al  Al0  1  0.69173479  0.54685920  0.73267978  1
  Ag  Ag1  1  0.19124877  0.04727293  0.23317680  1
