# generated using pymatgen
data_AlAs
_symmetry_space_group_name_H-M   'P 1'
_cell_length_a   4.05182743
_cell_length_b   4.01368809
_cell_length_c   3.98813415
_cell_angle_alpha   59.00707626
_cell_angle_beta   59.62170410
_cell_angle_gamma   60.12807846
_symmetry_Int_Tables_number   1
_chemical_formula_structural   AlAs
_chemical_formula_sum   'Al1 As1'
_cell_volume   45.42080870
_cell_formula_units_Z   1
loop_
 _symmetry_equiv_pos_site_id
 _symmetry_equiv_pos_as_xyz
  1  'x, y, z'
loop_
 _atom_site_type_symbol
 _atom_site_label
 _atom_site_symmetry_multiplicity
 _atom_site_fract_x
 _atom_site_fract_y
 _atom_site_fract_z
 _atom_site_occupancy
  Al  Al0  1  0.07308327  0.16169193  0.85132504  1
  As  As1  1  0.82110232  0.90990090  0.60278553  1
