# generated using pymatgen
data_AlAu
_symmetry_space_group_name_H-M   'P 1'
_cell_length_a   4.51626110
_cell_length_b   4.51225519
_cell_length_c   6.62998962
_cell_angle_alpha   89.94664764
_cell_angle_beta   90.04519653
_cell_angle_gamma   89.91941833
_symmetry_Int_Tables_number   1
_chemical_formula_structural   AlAu
_chemical_formula_sum   'Al4 Au4'
_cell_volume   135.10915901
_cell_formula_units_Z   4
loop_
 _symmetry_equiv_pos_site_id
 _symmetry_equiv_pos_as_xyz
  1  'x, y, z'
loop_
 _atom_site_type_symbol
 _atom_site_label
 _atom_site_symmetry_multiplicity
 _atom_site_fract_x
 _atom_site_fract_y
 _atom_site_fract_z
 _atom_site_occupancy
  Al  Al0  1  0.50172156  0.83675390  0.90777677  1
  Al  Al1  1  0.50172722  0.83667266  0.40783107  1
  Al  Al2  1  0.00147391  0.33641821  0.40757328  1
  Al  Al3  1  0.00102123  0.33616745  0.90763998  1
  Au  Au4  1  0.00202487  0.83721423  0.65822947  1
  Au  Au5  1  0.50170559  0.33691317  0.65831912  1
  Au  Au6  1  0.50256389  0.33526793  0.15873271  1
  Au  Au7  1  0.00158760  0.83692980  0.15832651  1
