# generated using pymatgen
data_AlFe
_symmetry_space_group_name_H-M   'P 1'
_cell_length_a   2.94818425
_cell_length_b   2.90021515
_cell_length_c   2.97639704
_cell_angle_alpha   89.95056915
_cell_angle_beta   90.49983978
_cell_angle_gamma   89.71684265
_symmetry_Int_Tables_number   1
_chemical_formula_structural   AlFe
_chemical_formula_sum   'Al1 Fe1'
_cell_volume   25.44800223
_cell_formula_units_Z   1
loop_
 _symmetry_equiv_pos_site_id
 _symmetry_equiv_pos_as_xyz
  1  'x, y, z'
loop_
 _atom_site_type_symbol
 _atom_site_label
 _atom_site_symmetry_multiplicity
 _atom_site_fract_x
 _atom_site_fract_y
 _atom_site_fract_z
 _atom_site_occupancy
  Al  Al0  1  0.93491590  0.96016759  0.15704663  1
  Fe  Fe1  1  0.43521881  0.45933422  0.65663105  1
