# generated using pymatgen
data_AlHO2
_symmetry_space_group_name_H-M   'P 1'
_cell_length_a   3.02837968
_cell_length_b   4.59082174
_cell_length_c   4.95489740
_cell_angle_alpha   101.10771942
_cell_angle_beta   89.33373260
_cell_angle_gamma   89.98449707
_symmetry_Int_Tables_number   1
_chemical_formula_structural   AlHO2
_chemical_formula_sum   'Al2 H2 O4'
_cell_volume   67.59144047
_cell_formula_units_Z   2
loop_
 _symmetry_equiv_pos_site_id
 _symmetry_equiv_pos_as_xyz
  1  'x, y, z'
loop_
 _atom_site_type_symbol
 _atom_site_label
 _atom_site_symmetry_multiplicity
 _atom_site_fract_x
 _atom_site_fract_y
 _atom_site_fract_z
 _atom_site_occupancy
  Al  Al0  1  0.14173220  0.97374821  0.84575510  1
  Al  Al1  1  0.64186740  0.97174275  0.34759673  1
  H  H2  1  0.64224941  0.47768357  0.86647302  1
  H  H3  1  0.14227386  0.43471783  0.35742468  1
  O  O4  1  0.14120476  0.18462850  0.21998161  1
  O  O5  1  0.64116663  0.18639760  0.71908569  1
  O  O6  1  0.64143592  0.75909710  0.97380376  1
  O  O7  1  0.14106844  0.76002890  0.47408053  1
