# generated using pymatgen
data_AlIn(AgS2)2
_symmetry_space_group_name_H-M   'P 1'
_cell_length_a   5.36742830
_cell_length_b   5.39983320
_cell_length_c   6.67976189
_cell_angle_alpha   113.60335541
_cell_angle_beta   113.53506470
_cell_angle_gamma   90.03161621
_symmetry_Int_Tables_number   1
_chemical_formula_structural   AlIn(AgS2)2
_chemical_formula_sum   'Al1 In1 Ag2 S4'
_cell_volume   159.65360303
_cell_formula_units_Z   1
loop_
 _symmetry_equiv_pos_site_id
 _symmetry_equiv_pos_as_xyz
  1  'x, y, z'
loop_
 _atom_site_type_symbol
 _atom_site_label
 _atom_site_symmetry_multiplicity
 _atom_site_fract_x
 _atom_site_fract_y
 _atom_site_fract_z
 _atom_site_occupancy
  Al  Al0  1  0.65418994  0.31255788  0.33756685  1
  In  In1  1  0.90376288  0.06926280  0.83683527  1
  Ag  Ag2  1  0.40415907  0.56996089  0.83892065  1
  Ag  Ag3  1  0.15478735  0.82186747  0.34070984  1
  S  S4  1  0.85917097  0.52805537  0.75168413  1
  S  S5  1  0.14378507  0.31232169  0.31266099  1
  S  S6  1  0.42766833  0.09946496  0.88387179  1
  S  S7  1  0.65723562  0.83268386  0.34623012  1
