# generated using pymatgen
data_AlInN2
_symmetry_space_group_name_H-M   'P 1'
_cell_length_a   5.42933464
_cell_length_b   5.42477798
_cell_length_c   6.32157803
_cell_angle_alpha   89.80796051
_cell_angle_beta   89.81722260
_cell_angle_gamma   110.76723480
_symmetry_Int_Tables_number   1
_chemical_formula_structural   AlInN2
_chemical_formula_sum   'Al4 In4 N8'
_cell_volume   174.08917760
_cell_formula_units_Z   4
loop_
 _symmetry_equiv_pos_site_id
 _symmetry_equiv_pos_as_xyz
  1  'x, y, z'
loop_
 _atom_site_type_symbol
 _atom_site_label
 _atom_site_symmetry_multiplicity
 _atom_site_fract_x
 _atom_site_fract_y
 _atom_site_fract_z
 _atom_site_occupancy
  Al  Al0  1  0.64322650  0.34055614  0.18672793  1
  Al  Al1  1  0.14354731  0.84074229  0.18672526  1
  Al  Al2  1  0.14323132  0.84052640  0.68656266  1
  Al  Al3  1  0.64294875  0.34064186  0.68687665  1
  In  In4  1  0.64304441  0.84052533  0.93641019  1
  In  In5  1  0.14342146  0.34055492  0.93402636  1
  In  In6  1  0.14353217  0.34040880  0.43501267  1
  In  In7  1  0.64397079  0.84022558  0.43458980  1
  N  N8  1  0.89522022  0.59126866  0.93075186  1
  N  N9  1  0.39438510  0.59106350  0.68453294  1
  N  N10  1  0.89541286  0.59017354  0.43112057  1
  N  N11  1  0.89527327  0.09126018  0.68456596  1
  N  N12  1  0.39408791  0.59096688  0.18420307  1
  N  N13  1  0.39399108  0.09077965  0.93092972  1
  N  N14  1  0.89570528  0.09149279  0.18324444  1
  N  N15  1  0.39474723  0.09088163  0.43049213  1
