# generated using pymatgen
data_AlNi2
_symmetry_space_group_name_H-M   'P 1'
_cell_length_a   4.40713024
_cell_length_b   4.40193748
_cell_length_c   4.84442091
_cell_angle_alpha   64.35802460
_cell_angle_beta   63.53036118
_cell_angle_gamma   59.51373291
_symmetry_Int_Tables_number   1
_chemical_formula_structural   AlNi2
_chemical_formula_sum   'Al2 Ni4'
_cell_volume   69.84964658
_cell_formula_units_Z   2
loop_
 _symmetry_equiv_pos_site_id
 _symmetry_equiv_pos_as_xyz
  1  'x, y, z'
loop_
 _atom_site_type_symbol
 _atom_site_label
 _atom_site_symmetry_multiplicity
 _atom_site_fract_x
 _atom_site_fract_y
 _atom_site_fract_z
 _atom_site_occupancy
  Al  Al0  1  0.95460314  0.25732127  0.26007795  1
  Al  Al1  1  0.78354365  0.75835890  0.76037914  1
  Ni  Ni2  1  0.28504589  0.59066409  0.26018980  1
  Ni  Ni3  1  0.45218775  0.42400482  0.76043630  1
  Ni  Ni4  1  0.11649503  0.09048645  0.76030111  1
  Ni  Ni5  1  0.61769849  0.92292196  0.26066417  1
