# generated using pymatgen
data_AlSiMo
_symmetry_space_group_name_H-M   'P 1'
_cell_length_a   4.71108198
_cell_length_b   4.71019888
_cell_length_c   6.80885124
_cell_angle_alpha   89.95004272
_cell_angle_beta   89.91822052
_cell_angle_gamma   119.80973816
_symmetry_Int_Tables_number   1
_chemical_formula_structural   AlSiMo
_chemical_formula_sum   'Al3 Si3 Mo3'
_cell_volume   131.09697276
_cell_formula_units_Z   3
loop_
 _symmetry_equiv_pos_site_id
 _symmetry_equiv_pos_as_xyz
  1  'x, y, z'
loop_
 _atom_site_type_symbol
 _atom_site_label
 _atom_site_symmetry_multiplicity
 _atom_site_fract_x
 _atom_site_fract_y
 _atom_site_fract_z
 _atom_site_occupancy
  Al  Al0  1  0.69920993  0.52278465  0.96460068  1
  Al  Al1  1  0.87033415  0.35637280  0.30090204  1
  Al  Al2  1  0.36075303  0.85613167  0.96387863  1
  Si  Si3  1  0.19772053  0.02225240  0.29644382  1
  Si  Si4  1  0.87121314  0.85627276  0.63539147  1
  Si  Si5  1  0.19983342  0.52352989  0.63727814  1
  Mo  Mo6  1  0.03221149  0.18887642  0.96277249  1
  Mo  Mo7  1  0.53287280  0.68925589  0.30758300  1
  Mo  Mo8  1  0.53324521  0.18912092  0.63212246  1
