# generated using pymatgen
data_Ba(AsPd)2
_symmetry_space_group_name_H-M   'P 1'
_cell_length_a   4.30488348
_cell_length_b   7.45187044
_cell_length_c   7.73003197
_cell_angle_alpha   98.64478302
_cell_angle_beta   89.91259003
_cell_angle_gamma   107.25283813
_symmetry_Int_Tables_number   1
_chemical_formula_structural   Ba(AsPd)2
_chemical_formula_sum   'Ba2 As4 Pd4'
_cell_volume   233.88348880
_cell_formula_units_Z   2
loop_
 _symmetry_equiv_pos_site_id
 _symmetry_equiv_pos_as_xyz
  1  'x, y, z'
loop_
 _atom_site_type_symbol
 _atom_site_label
 _atom_site_symmetry_multiplicity
 _atom_site_fract_x
 _atom_site_fract_y
 _atom_site_fract_z
 _atom_site_occupancy
  Ba  Ba0  1  0.61916161  0.87537819  0.88684273  1
  Ba  Ba1  1  0.33024496  0.30715138  0.23667452  1
  As  As2  1  0.03669346  0.72204775  0.21096534  1
  As  As3  1  0.32044405  0.28411275  0.80124336  1
  As  As4  1  0.68352723  0.01556293  0.35715133  1
  As  As5  1  0.98413670  0.61821675  0.60414243  1
  Pd  Pd6  1  0.16730528  0.97811311  0.53242356  1
  Pd  Pd7  1  0.90970093  0.47008359  0.92962921  1
  Pd  Pd8  1  0.52190006  0.70248854  0.42904130  1
  Pd  Pd9  1  0.81493956  0.27600503  0.60402077  1
