# generated using pymatgen
data_Ba(CdGe)2
_symmetry_space_group_name_H-M   'P 1'
_cell_length_a   4.70940256
_cell_length_b   4.71229172
_cell_length_c   6.54762602
_cell_angle_alpha   110.78180695
_cell_angle_beta   111.01449585
_cell_angle_gamma   90.05745697
_symmetry_Int_Tables_number   1
_chemical_formula_structural   Ba(CdGe)2
_chemical_formula_sum   'Ba1 Cd2 Ge2'
_cell_volume   125.43963569
_cell_formula_units_Z   1
loop_
 _symmetry_equiv_pos_site_id
 _symmetry_equiv_pos_as_xyz
  1  'x, y, z'
loop_
 _atom_site_type_symbol
 _atom_site_label
 _atom_site_symmetry_multiplicity
 _atom_site_fract_x
 _atom_site_fract_y
 _atom_site_fract_z
 _atom_site_occupancy
  Ba  Ba0  1  0.68807608  0.09535588  0.12654012  1
  Cd  Cd1  1  0.43802932  0.34405759  0.62609738  1
  Cd  Cd2  1  0.93707985  0.84412152  0.62610757  1
  Ge  Ge3  1  0.30078065  0.70746928  0.35441685  1
  Ge  Ge4  1  0.07194112  0.47538778  0.89520389  1
