# generated using pymatgen
data_Ba(CuO)4
_symmetry_space_group_name_H-M   'P 1'
_cell_length_a   4.91462708
_cell_length_b   5.12578440
_cell_length_c   11.24623108
_cell_angle_alpha   89.95816803
_cell_angle_beta   92.19519806
_cell_angle_gamma   91.45804596
_symmetry_Int_Tables_number   1
_chemical_formula_structural   Ba(CuO)4
_chemical_formula_sum   'Ba2 Cu8 O8'
_cell_volume   283.00781233
_cell_formula_units_Z   2
loop_
 _symmetry_equiv_pos_site_id
 _symmetry_equiv_pos_as_xyz
  1  'x, y, z'
loop_
 _atom_site_type_symbol
 _atom_site_label
 _atom_site_symmetry_multiplicity
 _atom_site_fract_x
 _atom_site_fract_y
 _atom_site_fract_z
 _atom_site_occupancy
  Ba  Ba0  1  0.99078941  0.14834766  0.73361802  1
  Ba  Ba1  1  0.49214640  0.64813733  0.22535130  1
  Cu  Cu2  1  0.04045987  0.64967406  0.47265348  1
  Cu  Cu3  1  0.52022940  0.14878803  0.97117966  1
  Cu  Cu4  1  0.54470420  0.64903164  0.86502451  1
  Cu  Cu5  1  0.02488934  0.64826310  0.97143841  1
  Cu  Cu6  1  0.02897938  0.14867955  0.07354727  1
  Cu  Cu7  1  0.49027151  0.64903158  0.62244815  1
  Cu  Cu8  1  0.38525438  0.14953795  0.47416222  1
  Cu  Cu9  1  0.88460815  0.14863046  0.33102515  1
  O  O10  1  0.77094668  0.89692086  0.99969965  1
  O  O11  1  0.27027619  0.39670655  0.56811994  1
  O  O12  1  0.52124745  0.14608710  0.33263019  1
  O  O13  1  0.27044535  0.89591390  0.57406527  1
  O  O14  1  0.77023715  0.64562023  0.72977293  1
  O  O15  1  0.26987854  0.39368996  0.94716603  1
  O  O16  1  0.99036723  0.34338287  0.20170352  1
  O  O17  1  0.99129373  0.84051526  0.33267131  1
