# generated using pymatgen
data_Ba(PrS2)2
_symmetry_space_group_name_H-M   'P 1'
_cell_length_a   7.68289566
_cell_length_b   7.67479658
_cell_length_c   7.65999174
_cell_angle_alpha   109.18584442
_cell_angle_beta   109.22782898
_cell_angle_gamma   109.73059845
_symmetry_Int_Tables_number   1
_chemical_formula_structural   Ba(PrS2)2
_chemical_formula_sum   'Ba2 Pr4 S8'
_cell_volume   348.83864740
_cell_formula_units_Z   2
loop_
 _symmetry_equiv_pos_site_id
 _symmetry_equiv_pos_as_xyz
  1  'x, y, z'
loop_
 _atom_site_type_symbol
 _atom_site_label
 _atom_site_symmetry_multiplicity
 _atom_site_fract_x
 _atom_site_fract_y
 _atom_site_fract_z
 _atom_site_occupancy
  Ba  Ba0  1  0.94298881  0.73963982  0.58420533  1
  Ba  Ba1  1  0.81849480  0.86360043  0.08519284  1
  Pr  Pr2  1  0.44138357  0.98995322  0.33353528  1
  Pr  Pr3  1  0.56484407  0.24102631  0.96212298  1
  Pr  Pr4  1  0.31818187  0.49320161  0.46177459  1
  Pr  Pr5  1  0.06395099  0.36284351  0.83364475  1
  S  S6  1  0.83832830  0.26132050  0.36142579  1
  S  S7  1  0.21126379  0.13486384  0.57741380  1
  S  S8  1  0.05223652  0.59761357  0.19968729  1
  S  S9  1  0.21118721  0.13251156  0.07795297  1
  S  S10  1  0.51453984  0.59754723  0.20055194  1
  S  S11  1  0.33885786  0.76026684  0.86125076  1
  S  S12  1  0.67306477  0.97858793  0.69977260  1
  S  S13  1  0.67262411  0.43436885  0.70027804  1
