# generated using pymatgen
data_Ba2DyTaO6
_symmetry_space_group_name_H-M   'P 1'
_cell_length_a   6.07109213
_cell_length_b   6.09045744
_cell_length_c   6.07578754
_cell_angle_alpha   59.67170715
_cell_angle_beta   59.69348145
_cell_angle_gamma   59.66229630
_symmetry_Int_Tables_number   1
_chemical_formula_structural   Ba2DyTaO6
_chemical_formula_sum   'Ba2 Dy1 Ta1 O6'
_cell_volume   157.68631304
_cell_formula_units_Z   1
loop_
 _symmetry_equiv_pos_site_id
 _symmetry_equiv_pos_as_xyz
  1  'x, y, z'
loop_
 _atom_site_type_symbol
 _atom_site_label
 _atom_site_symmetry_multiplicity
 _atom_site_fract_x
 _atom_site_fract_y
 _atom_site_fract_z
 _atom_site_occupancy
  Ba  Ba0  1  0.49196193  0.68987876  0.41998419  1
  Ba  Ba1  1  0.99270117  0.18949057  0.91982955  1
  Dy  Dy2  1  0.74159402  0.94138741  0.67031407  1
  Ta  Ta3  1  0.24185292  0.44102594  0.17042044  1
  O  O4  1  0.47732672  0.20491090  0.93328184  1
  O  O5  1  0.47648451  0.20542647  0.40567434  1
  O  O6  1  0.00562098  0.67743099  0.40607688  1
  O  O7  1  0.00579657  0.20505285  0.40630704  1
  O  O8  1  0.00531187  0.67687541  0.93383604  1
  O  O9  1  0.47740203  0.67695290  0.93289167  1
