# generated using pymatgen
data_Ba2FeBrO3
_symmetry_space_group_name_H-M   'P 1'
_cell_length_a   4.19132137
_cell_length_b   4.16418600
_cell_length_c   16.34763336
_cell_angle_alpha   97.41821289
_cell_angle_beta   97.33325958
_cell_angle_gamma   90.29742432
_symmetry_Int_Tables_number   1
_chemical_formula_structural   Ba2FeBrO3
_chemical_formula_sum   'Ba4 Fe2 Br2 O6'
_cell_volume   280.55198212
_cell_formula_units_Z   2
loop_
 _symmetry_equiv_pos_site_id
 _symmetry_equiv_pos_as_xyz
  1  'x, y, z'
loop_
 _atom_site_type_symbol
 _atom_site_label
 _atom_site_symmetry_multiplicity
 _atom_site_fract_x
 _atom_site_fract_y
 _atom_site_fract_z
 _atom_site_occupancy
  Ba  Ba0  1  0.88569409  0.28620619  0.39484635  1
  Ba  Ba1  1  0.52402568  0.92270058  0.67597622  1
  Ba  Ba2  1  0.64487481  0.04222550  0.90676057  1
  Ba  Ba3  1  0.26263878  0.66147751  0.14846389  1
  Fe  Fe4  1  0.09019879  0.49216670  0.81041360  1
  Fe  Fe5  1  0.35037392  0.75679094  0.32809663  1
  Br  Br6  1  0.73747212  0.13626708  0.09960971  1
  Br  Br7  1  0.98592257  0.38155982  0.59902877  1
  O  O8  1  0.83453822  0.73083436  0.29056686  1
  O  O9  1  0.41179770  0.80867267  0.44297147  1
  O  O10  1  0.08410781  0.97875899  0.78903341  1
  O  O11  1  0.33282396  0.22852579  0.29032901  1
  O  O12  1  0.58369207  0.47968760  0.78867346  1
  O  O13  1  0.16220242  0.55809969  0.94322985  1
