# generated using pymatgen
data_Ba2In2O5
_symmetry_space_group_name_H-M   'P 1'
_cell_length_a   4.33906651
_cell_length_b   4.32062244
_cell_length_c   8.41479778
_cell_angle_alpha   89.96327209
_cell_angle_beta   90.05698395
_cell_angle_gamma   90.04940796
_symmetry_Int_Tables_number   1
_chemical_formula_structural   Ba2In2O5
_chemical_formula_sum   'Ba2 In2 O5'
_cell_volume   157.75598425
_cell_formula_units_Z   1
loop_
 _symmetry_equiv_pos_site_id
 _symmetry_equiv_pos_as_xyz
  1  'x, y, z'
loop_
 _atom_site_type_symbol
 _atom_site_label
 _atom_site_symmetry_multiplicity
 _atom_site_fract_x
 _atom_site_fract_y
 _atom_site_fract_z
 _atom_site_occupancy
  Ba  Ba0  1  0.90194780  0.67130417  0.43189272  1
  Ba  Ba1  1  0.90239698  0.67104089  0.93283892  1
  In  In2  1  0.40205246  0.17079298  0.68326014  1
  In  In3  1  0.40243220  0.17092347  0.18370228  1
  O  O4  1  0.40206710  0.67094207  0.15313388  1
  O  O5  1  0.90209663  0.17128757  0.15281074  1
  O  O6  1  0.40213978  0.17178710  0.43287754  1
  O  O7  1  0.40208492  0.67134762  0.72453177  1
  O  O8  1  0.90212196  0.17109407  0.72790569  1
