# generated using pymatgen
data_Ba2Na(SnAs)6
_symmetry_space_group_name_H-M   'P 1'
_cell_length_a   4.47191858
_cell_length_b   7.21192265
_cell_length_c   13.28068829
_cell_angle_alpha   92.26049805
_cell_angle_beta   100.13478088
_cell_angle_gamma   90.04887390
_symmetry_Int_Tables_number   1
_chemical_formula_structural   Ba2Na(SnAs)6
_chemical_formula_sum   'Ba2 Na1 Sn6 As6'
_cell_volume   421.29265825
_cell_formula_units_Z   1
loop_
 _symmetry_equiv_pos_site_id
 _symmetry_equiv_pos_as_xyz
  1  'x, y, z'
loop_
 _atom_site_type_symbol
 _atom_site_label
 _atom_site_symmetry_multiplicity
 _atom_site_fract_x
 _atom_site_fract_y
 _atom_site_fract_z
 _atom_site_occupancy
  Ba  Ba0  1  0.10971764  0.73097396  0.99555886  1
  Ba  Ba1  1  0.95009071  0.03230904  0.67173094  1
  Na  Na2  1  0.23757260  0.17902708  0.24359180  1
  Sn  Sn3  1  0.50408340  0.45236480  0.77814656  1
  Sn  Sn4  1  0.70341694  0.51162815  0.17865902  1
  Sn  Sn5  1  0.37904984  0.67522240  0.53254515  1
  Sn  Sn6  1  0.80929655  0.87050325  0.38406694  1
  Sn  Sn7  1  0.81993276  0.36880538  0.41953680  1
  Sn  Sn8  1  0.60380548  0.17207679  0.98132885  1
  As  As9  1  0.34810615  0.11141666  0.47334209  1
  As  As10  1  0.52594984  0.84563202  0.82419485  1
  As  As11  1  0.69103414  0.93200356  0.15630314  1
  As  As12  1  0.26838815  0.60832185  0.31724095  1
  As  As13  1  0.92792994  0.53003669  0.63529593  1
  As  As14  1  0.06138795  0.30617824  0.89275426  1
