# generated using pymatgen
data_Ba2UNiO6
_symmetry_space_group_name_H-M   'P 1'
_cell_length_a   5.98390818
_cell_length_b   6.00072813
_cell_length_c   6.00164413
_cell_angle_alpha   59.89864349
_cell_angle_beta   59.83983994
_cell_angle_gamma   59.93492889
_symmetry_Int_Tables_number   1
_chemical_formula_structural   Ba2UNiO6
_chemical_formula_sum   'Ba2 U1 Ni1 O6'
_cell_volume   152.00907797
_cell_formula_units_Z   1
loop_
 _symmetry_equiv_pos_site_id
 _symmetry_equiv_pos_as_xyz
  1  'x, y, z'
loop_
 _atom_site_type_symbol
 _atom_site_label
 _atom_site_symmetry_multiplicity
 _atom_site_fract_x
 _atom_site_fract_y
 _atom_site_fract_z
 _atom_site_occupancy
  Ba  Ba0  1  0.38212991  0.64121288  0.13262996  1
  Ba  Ba1  1  0.88176686  0.14138146  0.63280547  1
  U  U2  1  0.13159440  0.39153373  0.88313967  1
  Ni  Ni3  1  0.63157105  0.89168304  0.38321060  1
  O  O4  1  0.88261551  0.14283879  0.13241693  1
  O  O5  1  0.38148895  0.14290634  0.63305211  1
  O  O6  1  0.38135177  0.14287670  0.13174464  1
  O  O7  1  0.88226825  0.64166856  0.63307947  1
  O  O8  1  0.38198489  0.64107895  0.63270152  1
  O  O9  1  0.88256437  0.64189857  0.13199989  1
