# generated using pymatgen
data_Ba3(LiSb)4
_symmetry_space_group_name_H-M   'P 1'
_cell_length_a   4.89442587
_cell_length_b   7.55924273
_cell_length_c   9.61948872
_cell_angle_alpha   90.00379181
_cell_angle_beta   104.85437012
_cell_angle_gamma   89.81933594
_symmetry_Int_Tables_number   1
_chemical_formula_structural   Ba3(LiSb)4
_chemical_formula_sum   'Ba3 Li4 Sb4'
_cell_volume   344.00741247
_cell_formula_units_Z   1
loop_
 _symmetry_equiv_pos_site_id
 _symmetry_equiv_pos_as_xyz
  1  'x, y, z'
loop_
 _atom_site_type_symbol
 _atom_site_label
 _atom_site_symmetry_multiplicity
 _atom_site_fract_x
 _atom_site_fract_y
 _atom_site_fract_z
 _atom_site_occupancy
  Ba  Ba0  1  0.75152725  0.24779993  0.80363232  1
  Ba  Ba1  1  0.95916808  0.52624649  0.21856806  1
  Ba  Ba2  1  0.55847430  0.00562332  0.41946307  1
  Li  Li3  1  0.15740739  0.58282131  0.62201422  1
  Li  Li4  1  0.40605462  0.23800243  0.10014949  1
  Li  Li5  1  0.75159431  0.73878914  0.80361402  1
  Li  Li6  1  0.35149568  0.87437391  0.00442109  1
  Sb  Sb7  1  0.59488058  0.52051944  0.48938224  1
  Sb  Sb8  1  0.31102264  0.52746391  0.92486930  1
  Sb  Sb9  1  0.91578043  0.02390862  0.13388486  1
  Sb  Sb10  1  0.19918641  0.95592868  0.69786274  1
