# generated using pymatgen
data_Ba3(InP2)2
_symmetry_space_group_name_H-M   'P 1'
_cell_length_a   7.87409401
_cell_length_b   8.47205925
_cell_length_c   8.78061867
_cell_angle_alpha   99.48152161
_cell_angle_beta   96.92207336
_cell_angle_gamma   107.07080841
_symmetry_Int_Tables_number   1
_chemical_formula_structural   Ba3(InP2)2
_chemical_formula_sum   'Ba6 In4 P8'
_cell_volume   543.36620247
_cell_formula_units_Z   2
loop_
 _symmetry_equiv_pos_site_id
 _symmetry_equiv_pos_as_xyz
  1  'x, y, z'
loop_
 _atom_site_type_symbol
 _atom_site_label
 _atom_site_symmetry_multiplicity
 _atom_site_fract_x
 _atom_site_fract_y
 _atom_site_fract_z
 _atom_site_occupancy
  Ba  Ba0  1  0.34966049  0.52777213  0.28533924  1
  Ba  Ba1  1  0.90957928  0.86662352  0.85243255  1
  Ba  Ba2  1  0.49536455  0.02750946  0.18851456  1
  Ba  Ba3  1  0.69661558  0.43098173  0.96360284  1
  Ba  Ba4  1  0.39797485  0.94495952  0.69265264  1
  Ba  Ba5  1  0.14231370  0.37876195  0.68861103  1
  In  In6  1  0.03670581  0.75741631  0.27172786  1
  In  In7  1  0.02933025  0.14642179  0.18520220  1
  In  In8  1  0.70291597  0.42467922  0.52397186  1
  In  In9  1  0.82567084  0.92441237  0.47349826  1
  P  P10  1  0.15751268  0.66548437  0.99467540  1
  P  P11  1  0.72143805  0.78856951  0.16998345  1
  P  P12  1  0.27322271  0.20063984  0.97254050  1
  P  P13  1  0.53174800  0.59650218  0.66869760  1
  P  P14  1  0.21772730  0.09964105  0.40737274  1
  P  P15  1  0.87381142  0.36908865  0.27487275  1
  P  P16  1  0.74925590  0.16807258  0.65319109  1
  P  P17  1  0.02063203  0.70893252  0.54820395  1
