# generated using pymatgen
data_Ba3ReN3
_symmetry_space_group_name_H-M   'P 1'
_cell_length_a   5.68671846
_cell_length_b   8.41003990
_cell_length_c   8.42159748
_cell_angle_alpha   119.98860168
_cell_angle_beta   89.91665649
_cell_angle_gamma   89.90918732
_symmetry_Int_Tables_number   1
_chemical_formula_structural   Ba3ReN3
_chemical_formula_sum   'Ba6 Re2 N6'
_cell_volume   348.84520627
_cell_formula_units_Z   2
loop_
 _symmetry_equiv_pos_site_id
 _symmetry_equiv_pos_as_xyz
  1  'x, y, z'
loop_
 _atom_site_type_symbol
 _atom_site_label
 _atom_site_symmetry_multiplicity
 _atom_site_fract_x
 _atom_site_fract_y
 _atom_site_fract_z
 _atom_site_occupancy
  Ba  Ba0  1  0.07100841  0.73339909  0.88479877  1
  Ba  Ba1  1  0.57081038  0.39300689  0.75023723  1
  Ba  Ba2  1  0.57120514  0.80708736  0.59445119  1
  Ba  Ba3  1  0.07138412  0.33954403  0.39364377  1
  Ba  Ba4  1  0.57128704  0.98834735  0.21560492  1
  Ba  Ba5  1  0.07091191  0.16996565  0.85719216  1
  Re  Re6  1  0.57062542  0.41063339  0.16548629  1
  Re  Re7  1  0.07143610  0.73645908  0.31233880  1
  N  N8  1  0.07154066  0.92973977  0.27854785  1
  N  N9  1  0.07099807  0.77906626  0.55802399  1
  N  N10  1  0.07106781  0.47610298  0.14703804  1
  N  N11  1  0.57125837  0.39930293  0.39104396  1
  N  N12  1  0.57165986  0.17580260  0.94611609  1
  N  N13  1  0.57119364  0.63728154  0.18443306  1
