# generated using pymatgen
data_Ba4Hf3S10
_symmetry_space_group_name_H-M   'P 1'
_cell_length_a   6.98805237
_cell_length_b   7.00841331
_cell_length_c   9.60551643
_cell_angle_alpha   89.77698517
_cell_angle_beta   89.77179718
_cell_angle_gamma   89.84756470
_symmetry_Int_Tables_number   1
_chemical_formula_structural   Ba4Hf3S10
_chemical_formula_sum   'Ba4 Hf3 S10'
_cell_volume   470.42275665
_cell_formula_units_Z   1
loop_
 _symmetry_equiv_pos_site_id
 _symmetry_equiv_pos_as_xyz
  1  'x, y, z'
loop_
 _atom_site_type_symbol
 _atom_site_label
 _atom_site_symmetry_multiplicity
 _atom_site_fract_x
 _atom_site_fract_y
 _atom_site_fract_z
 _atom_site_occupancy
  Ba  Ba0  1  0.83885688  0.62657577  0.40068260  1
  Ba  Ba1  1  0.84099489  0.62646639  0.90960616  1
  Ba  Ba2  1  0.37292665  0.12631154  0.90885925  1
  Ba  Ba3  1  0.37358043  0.12660012  0.40344629  1
  Hf  Hf4  1  0.83264691  0.12589002  0.65467048  1
  Hf  Hf5  1  0.34143782  0.62523007  0.15394644  1
  Hf  Hf6  1  0.86711383  0.12591211  0.15471117  1
  S  S7  1  0.31376287  0.62582636  0.89911163  1
  S  S8  1  0.61602700  0.87723011  0.65622747  1
  S  S9  1  0.61345118  0.37273538  0.65585309  1
  S  S10  1  0.91621917  0.12564512  0.41821823  1
  S  S11  1  0.31343818  0.62586826  0.41343540  1
  S  S12  1  0.10802601  0.37305531  0.15643714  1
  S  S13  1  0.11297207  0.87765789  0.15618899  1
  S  S14  1  0.91698021  0.12433608  0.88225764  1
  S  S15  1  0.61411297  0.87467611  0.15627669  1
  S  S16  1  0.61269897  0.37379244  0.15616100  1
