# generated using pymatgen
data_BaAlGaO4
_symmetry_space_group_name_H-M   'P 1'
_cell_length_a   5.47120428
_cell_length_b   5.46654367
_cell_length_c   7.45984840
_cell_angle_alpha   90.03697205
_cell_angle_beta   90.04657745
_cell_angle_gamma   120.25618744
_symmetry_Int_Tables_number   1
_chemical_formula_structural   BaAlGaO4
_chemical_formula_sum   'Ba2 Al2 Ga2 O8'
_cell_volume   192.72097453
_cell_formula_units_Z   2
loop_
 _symmetry_equiv_pos_site_id
 _symmetry_equiv_pos_as_xyz
  1  'x, y, z'
loop_
 _atom_site_type_symbol
 _atom_site_label
 _atom_site_symmetry_multiplicity
 _atom_site_fract_x
 _atom_site_fract_y
 _atom_site_fract_z
 _atom_site_occupancy
  Ba  Ba0  1  0.15084547  0.26052651  0.20907938  1
  Ba  Ba1  1  0.48500091  0.92695642  0.85042900  1
  Al  Al2  1  0.81677866  0.59241760  0.58569229  1
  Al  Al3  1  0.81693488  0.59363627  0.07749388  1
  Ga  Ga4  1  0.48592257  0.92618233  0.35716969  1
  Ga  Ga5  1  0.15041570  0.26151067  0.62567055  1
  O  O6  1  0.15155922  0.76638091  0.17042290  1
  O  O7  1  0.64397132  0.76170915  0.16953993  1
  O  O8  1  0.81775415  0.93109804  0.52077305  1
  O  O9  1  0.48465699  0.25361994  0.52100146  1
  O  O10  1  0.16697027  0.59724575  0.52063906  1
  O  O11  1  0.15038668  0.25454819  0.85470575  1
  O  O12  1  0.81685740  0.59430850  0.82957429  1
  O  O13  1  0.65039378  0.25467625  0.16932946  1
