# generated using pymatgen
data_BaCd3
_symmetry_space_group_name_H-M   'P 1'
_cell_length_a   5.13310528
_cell_length_b   7.36868095
_cell_length_c   7.35481405
_cell_angle_alpha   119.87406158
_cell_angle_beta   90.24015045
_cell_angle_gamma   90.12977600
_symmetry_Int_Tables_number   1
_chemical_formula_structural   BaCd3
_chemical_formula_sum   'Ba2 Cd6'
_cell_volume   241.21966268
_cell_formula_units_Z   2
loop_
 _symmetry_equiv_pos_site_id
 _symmetry_equiv_pos_as_xyz
  1  'x, y, z'
loop_
 _atom_site_type_symbol
 _atom_site_label
 _atom_site_symmetry_multiplicity
 _atom_site_fract_x
 _atom_site_fract_y
 _atom_site_fract_z
 _atom_site_occupancy
  Ba  Ba0  1  0.56451958  0.15388709  0.84065974  1
  Ba  Ba1  1  0.06511682  0.82261217  0.17377853  1
  Cd  Cd2  1  0.56476969  0.19872148  0.36111334  1
  Cd  Cd3  1  0.06508543  0.77362651  0.65296376  1
  Cd  Cd4  1  0.06466311  0.34391746  0.65378171  1
  Cd  Cd5  1  0.56457311  0.63025850  0.36088142  1
  Cd  Cd6  1  0.56427884  0.63007069  0.79802096  1
  Cd  Cd7  1  0.06481006  0.34273300  0.21616919  1
