# generated using pymatgen
data_BaCeN2
_symmetry_space_group_name_H-M   'P 1'
_cell_length_a   5.32141447
_cell_length_b   5.39965010
_cell_length_c   6.58383846
_cell_angle_alpha   113.51802063
_cell_angle_beta   113.83179474
_cell_angle_gamma   89.95203400
_symmetry_Int_Tables_number   1
_chemical_formula_structural   BaCeN2
_chemical_formula_sum   'Ba2 Ce2 N4'
_cell_volume   155.74571233
_cell_formula_units_Z   2
loop_
 _symmetry_equiv_pos_site_id
 _symmetry_equiv_pos_as_xyz
  1  'x, y, z'
loop_
 _atom_site_type_symbol
 _atom_site_label
 _atom_site_symmetry_multiplicity
 _atom_site_fract_x
 _atom_site_fract_y
 _atom_site_fract_z
 _atom_site_occupancy
  Ba  Ba0  1  0.26059124  0.46528926  0.56046897  1
  Ba  Ba1  1  0.51121265  0.21499327  0.05946499  1
  Ce  Ce2  1  0.01177681  0.71762389  0.06031867  1
  Ce  Ce3  1  0.76135743  0.96445990  0.55984956  1
  N  N4  1  0.22600177  0.92864436  0.49371451  1
  N  N5  1  0.97812599  0.17928469  0.99331331  1
  N  N6  1  0.55281287  0.75236827  0.13550892  1
  N  N7  1  0.79881638  0.50096720  0.63562387  1
