# generated using pymatgen
data_BaCuS2
_symmetry_space_group_name_H-M   'P 1'
_cell_length_a   4.43231106
_cell_length_b   4.44632864
_cell_length_c   9.05361557
_cell_angle_alpha   89.86231232
_cell_angle_beta   90.01638031
_cell_angle_gamma   89.99884796
_symmetry_Int_Tables_number   1
_chemical_formula_structural   BaCuS2
_chemical_formula_sum   'Ba2 Cu2 S4'
_cell_volume   178.42371134
_cell_formula_units_Z   2
loop_
 _symmetry_equiv_pos_site_id
 _symmetry_equiv_pos_as_xyz
  1  'x, y, z'
loop_
 _atom_site_type_symbol
 _atom_site_label
 _atom_site_symmetry_multiplicity
 _atom_site_fract_x
 _atom_site_fract_y
 _atom_site_fract_z
 _atom_site_occupancy
  Ba  Ba0  1  0.00366171  0.11490121  0.28922182  1
  Ba  Ba1  1  0.50296330  0.61506188  0.86597860  1
  Cu  Cu2  1  0.50288618  0.61514956  0.47123748  1
  Cu  Cu3  1  0.00269040  0.11483149  0.68113512  1
  S  S4  1  0.50298381  0.61547631  0.21627198  1
  S  S5  1  0.00325930  0.61518162  0.57523787  1
  S  S6  1  0.50308096  0.11538965  0.57442707  1
  S  S7  1  0.00364745  0.11426479  0.93579268  1
