# generated using pymatgen
data_BaHg3
_symmetry_space_group_name_H-M   'P 1'
_cell_length_a   5.06780767
_cell_length_b   7.14159536
_cell_length_c   7.18635654
_cell_angle_alpha   93.26525116
_cell_angle_beta   90.03487396
_cell_angle_gamma   89.95755768
_symmetry_Int_Tables_number   1
_chemical_formula_structural   BaHg3
_chemical_formula_sum   'Ba2 Hg6'
_cell_volume   259.66792376
_cell_formula_units_Z   2
loop_
 _symmetry_equiv_pos_site_id
 _symmetry_equiv_pos_as_xyz
  1  'x, y, z'
loop_
 _atom_site_type_symbol
 _atom_site_label
 _atom_site_symmetry_multiplicity
 _atom_site_fract_x
 _atom_site_fract_y
 _atom_site_fract_z
 _atom_site_occupancy
  Ba  Ba0  1  0.75719243  0.72567010  0.60028714  1
  Ba  Ba1  1  0.75690794  0.22443338  0.09659828  1
  Hg  Hg2  1  0.25682449  0.43127486  0.37902081  1
  Hg  Hg3  1  0.25665748  0.42405739  0.82254106  1
  Hg  Hg4  1  0.25653777  0.94640356  0.35256463  1
  Hg  Hg5  1  0.75644183  0.72474110  0.10523544  1
  Hg  Hg6  1  0.25644797  0.90025908  0.91531986  1
  Hg  Hg7  1  0.75710434  0.23069154  0.58625215  1
