# generated using pymatgen
data_BaP3
_symmetry_space_group_name_H-M   'P 1'
_cell_length_a   5.36155128
_cell_length_b   6.24959278
_cell_length_c   6.26628637
_cell_angle_alpha   90.97148895
_cell_angle_beta   90.12137604
_cell_angle_gamma   90.51780701
_symmetry_Int_Tables_number   1
_chemical_formula_structural   BaP3
_chemical_formula_sum   'Ba2 P6'
_cell_volume   209.92837037
_cell_formula_units_Z   2
loop_
 _symmetry_equiv_pos_site_id
 _symmetry_equiv_pos_as_xyz
  1  'x, y, z'
loop_
 _atom_site_type_symbol
 _atom_site_label
 _atom_site_symmetry_multiplicity
 _atom_site_fract_x
 _atom_site_fract_y
 _atom_site_fract_z
 _atom_site_occupancy
  Ba  Ba0  1  0.50517941  0.93871713  0.80529410  1
  Ba  Ba1  1  0.50527376  0.44239283  0.30442777  1
  P  P2  1  0.03467037  0.80121529  0.46319318  1
  P  P3  1  0.72898078  0.94165111  0.30284628  1
  P  P4  1  0.08972302  0.55149794  0.70633733  1
  P  P5  1  0.03325389  0.30212072  0.96297252  1
  P  P6  1  0.09108534  0.05411283  0.20752092  1
  P  P7  1  0.72949731  0.43753681  0.80190241  1
