# generated using pymatgen
data_BaS3
_symmetry_space_group_name_H-M   'P 1'
_cell_length_a   7.12932539
_cell_length_b   7.16340637
_cell_length_c   8.27044487
_cell_angle_alpha   89.89731598
_cell_angle_beta   90.18006134
_cell_angle_gamma   90.26641846
_symmetry_Int_Tables_number   1
_chemical_formula_structural   BaS3
_chemical_formula_sum   'Ba4 S12'
_cell_volume   422.36640869
_cell_formula_units_Z   4
loop_
 _symmetry_equiv_pos_site_id
 _symmetry_equiv_pos_as_xyz
  1  'x, y, z'
loop_
 _atom_site_type_symbol
 _atom_site_label
 _atom_site_symmetry_multiplicity
 _atom_site_fract_x
 _atom_site_fract_y
 _atom_site_fract_z
 _atom_site_occupancy
  Ba  Ba0  1  0.67908937  0.30339053  0.05072155  1
  Ba  Ba1  1  0.67871588  0.80403483  0.55070704  1
  Ba  Ba2  1  0.17873742  0.30338806  0.55042994  1
  Ba  Ba3  1  0.17944227  0.80348146  0.05058779  1
  S  S4  1  0.42933142  0.55810487  0.30305630  1
  S  S5  1  0.92937964  0.55785936  0.80371404  1
  S  S6  1  0.12108545  0.87181622  0.65380651  1
  S  S7  1  0.43079072  0.55503553  0.80351061  1
  S  S8  1  0.62082839  0.87168115  0.15418319  1
  S  S9  1  0.92979932  0.55524892  0.30288300  1
  S  S10  1  0.62114710  0.37237617  0.65409732  1
  S  S11  1  0.92843229  0.05849190  0.30298018  1
  S  S12  1  0.12146570  0.37143245  0.15394472  1
  S  S13  1  0.42979267  0.05669647  0.30337808  1
  S  S14  1  0.92957157  0.05600635  0.80367672  1
  S  S15  1  0.42906985  0.05943982  0.80333841  1
