# generated using pymatgen
data_BaSi3Pd
_symmetry_space_group_name_H-M   'P 1'
_cell_length_a   4.46048403
_cell_length_b   4.42899227
_cell_length_c   6.04113150
_cell_angle_alpha   111.60263824
_cell_angle_beta   111.77278900
_cell_angle_gamma   89.96525574
_symmetry_Int_Tables_number   1
_chemical_formula_structural   BaSi3Pd
_chemical_formula_sum   'Ba1 Si3 Pd1'
_cell_volume   101.76109309
_cell_formula_units_Z   1
loop_
 _symmetry_equiv_pos_site_id
 _symmetry_equiv_pos_as_xyz
  1  'x, y, z'
loop_
 _atom_site_type_symbol
 _atom_site_label
 _atom_site_symmetry_multiplicity
 _atom_site_fract_x
 _atom_site_fract_y
 _atom_site_fract_z
 _atom_site_occupancy
  Ba  Ba0  1  0.27525723  0.66679192  0.04011176  1
  Si  Si1  1  0.52787477  0.41759300  0.54529124  1
  Si  Si2  1  0.65643466  0.04641683  0.80082417  1
  Si  Si3  1  0.02823817  0.91798508  0.54538721  1
  Pd  Pd4  1  0.91755962  0.30976990  0.32334340  1
