# generated using pymatgen
data_BaSi
_symmetry_space_group_name_H-M   'P 1'
_cell_length_a   4.20432520
_cell_length_b   5.16051388
_cell_length_c   6.52319241
_cell_angle_alpha   113.27947998
_cell_angle_beta   89.86475372
_cell_angle_gamma   89.79821777
_symmetry_Int_Tables_number   1
_chemical_formula_structural   BaSi
_chemical_formula_sum   'Ba2 Si2'
_cell_volume   130.00614570
_cell_formula_units_Z   2
loop_
 _symmetry_equiv_pos_site_id
 _symmetry_equiv_pos_as_xyz
  1  'x, y, z'
loop_
 _atom_site_type_symbol
 _atom_site_label
 _atom_site_symmetry_multiplicity
 _atom_site_fract_x
 _atom_site_fract_y
 _atom_site_fract_z
 _atom_site_occupancy
  Ba  Ba0  1  0.60024935  0.67994177  0.92349988  1
  Ba  Ba1  1  0.10034260  0.40486473  0.37175938  1
  Si  Si2  1  0.10016315  0.09992399  0.76412064  1
  Si  Si3  1  0.60003561  0.98433644  0.53065556  1
