# generated using pymatgen
data_BaSrI4
_symmetry_space_group_name_H-M   'P 1'
_cell_length_a   8.16222286
_cell_length_b   8.14123440
_cell_length_c   9.96069336
_cell_angle_alpha   113.93426514
_cell_angle_beta   113.91935730
_cell_angle_gamma   89.98871613
_symmetry_Int_Tables_number   1
_chemical_formula_structural   BaSrI4
_chemical_formula_sum   'Ba2 Sr2 I8'
_cell_volume   542.22459820
_cell_formula_units_Z   2
loop_
 _symmetry_equiv_pos_site_id
 _symmetry_equiv_pos_as_xyz
  1  'x, y, z'
loop_
 _atom_site_type_symbol
 _atom_site_label
 _atom_site_symmetry_multiplicity
 _atom_site_fract_x
 _atom_site_fract_y
 _atom_site_fract_z
 _atom_site_occupancy
  Ba  Ba0  1  0.11243525  0.96778619  0.59675616  1
  Ba  Ba1  1  0.86268616  0.21755907  0.09717645  1
  Sr  Sr2  1  0.61259186  0.46752262  0.59737486  1
  Sr  Sr3  1  0.36272076  0.71790874  0.09679205  1
  I  I4  1  0.98879397  0.83452141  0.84618819  1
  I  I5  1  0.98794824  0.35361683  0.84782875  1
  I  I6  1  0.72989947  0.59306759  0.34728423  1
  I  I7  1  0.48699722  0.83518547  0.84691185  1
  I  I8  1  0.24673112  0.59233516  0.34678042  1
  I  I9  1  0.73166019  0.08988642  0.34662527  1
  I  I10  1  0.48849043  0.35308126  0.84541637  1
  I  I11  1  0.24641739  0.09043524  0.34667093  1
