# generated using pymatgen
data_BaSrEuWO6
_symmetry_space_group_name_H-M   'P 1'
_cell_length_a   6.10116196
_cell_length_b   6.18855238
_cell_length_c   8.50576401
_cell_angle_alpha   89.92976379
_cell_angle_beta   90.08612823
_cell_angle_gamma   90.07933807
_symmetry_Int_Tables_number   1
_chemical_formula_structural   BaSrEuWO6
_chemical_formula_sum   'Ba2 Sr2 Eu2 W2 O12'
_cell_volume   321.15428542
_cell_formula_units_Z   2
loop_
 _symmetry_equiv_pos_site_id
 _symmetry_equiv_pos_as_xyz
  1  'x, y, z'
loop_
 _atom_site_type_symbol
 _atom_site_label
 _atom_site_symmetry_multiplicity
 _atom_site_fract_x
 _atom_site_fract_y
 _atom_site_fract_z
 _atom_site_occupancy
  Ba  Ba0  1  0.53939819  0.37827981  0.76314372  1
  Ba  Ba1  1  0.04033814  0.81184226  0.26444760  1
  Sr  Sr2  1  0.52415556  0.29940325  0.26388070  1
  Sr  Sr3  1  0.02452233  0.88582987  0.76485676  1
  Eu  Eu4  1  0.53505081  0.84407032  0.51504028  1
  Eu  Eu5  1  0.03533106  0.34459069  0.01427375  1
  W  W6  1  0.03488394  0.34351537  0.51382846  1
  W  W7  1  0.53482699  0.84423536  0.01361814  1
  O  O8  1  0.22914518  0.08017693  0.47808665  1
  O  O9  1  0.59037369  0.88196456  0.24176155  1
  O  O10  1  0.35153195  0.57553124  0.06109940  1
  O  O11  1  0.94964379  0.35981512  0.28454998  1
  O  O12  1  0.09472233  0.31102526  0.74414629  1
  O  O13  1  0.85166293  0.61040014  0.56094271  1
  O  O14  1  0.80601352  0.65499985  0.97931027  1
  O  O15  1  0.44707808  0.82357585  0.78802311  1
  O  O16  1  0.76896435  0.14607675  0.54403991  1
  O  O17  1  0.73008442  0.10646997  0.97604048  1
  O  O18  1  0.26859468  0.04244152  0.04364576  1
  O  O19  1  0.30572316  0.53202844  0.47714639  1
