# generated using pymatgen
data_BaSrYWO6
_symmetry_space_group_name_H-M   'P 1'
_cell_length_a   5.93673086
_cell_length_b   5.98943567
_cell_length_c   8.35909462
_cell_angle_alpha   90.11592865
_cell_angle_beta   89.99514008
_cell_angle_gamma   90.18540192
_symmetry_Int_Tables_number   1
_chemical_formula_structural   BaSrYWO6
_chemical_formula_sum   'Ba2 Sr2 Y2 W2 O12'
_cell_volume   297.22774250
_cell_formula_units_Z   2
loop_
 _symmetry_equiv_pos_site_id
 _symmetry_equiv_pos_as_xyz
  1  'x, y, z'
loop_
 _atom_site_type_symbol
 _atom_site_label
 _atom_site_symmetry_multiplicity
 _atom_site_fract_x
 _atom_site_fract_y
 _atom_site_fract_z
 _atom_site_occupancy
  Ba  Ba0  1  0.00177973  0.58401400  0.37638661  1
  Ba  Ba1  1  0.50248045  0.08903785  0.37408161  1
  Sr  Sr2  1  0.46401212  0.08280613  0.87433088  1
  Sr  Sr3  1  0.96720624  0.58549881  0.87309492  1
  Y  Y4  1  0.48722959  0.58333415  0.12018992  1
  Y  Y5  1  0.98680496  0.08472326  0.62963808  1
  W  W6  1  0.98697376  0.08407701  0.11830144  1
  W  W7  1  0.48652473  0.58461815  0.63030446  1
  O  O8  1  0.48440346  0.63009387  0.39145806  1
  O  O9  1  0.99586040  0.15249327  0.89170939  1
  O  O10  1  0.75050920  0.38043082  0.60444939  1
  O  O11  1  0.78083932  0.34386888  0.14950067  1
  O  O12  1  0.50131190  0.51797658  0.85848433  1
  O  O13  1  0.25102463  0.28747734  0.14535785  1
  O  O14  1  0.98577988  0.02944874  0.35689417  1
  O  O15  1  0.27955881  0.32128590  0.60312694  1
  O  O16  1  0.22535957  0.78983569  0.66075045  1
  O  O17  1  0.69898611  0.84330690  0.66045725  1
  O  O18  1  0.72544605  0.87690997  0.08359810  1
  O  O19  1  0.19759655  0.82273674  0.08337747  1
