# generated using pymatgen
data_BaSrDyWO6
_symmetry_space_group_name_H-M   'P 1'
_cell_length_a   5.99165964
_cell_length_b   6.02924824
_cell_length_c   8.44140625
_cell_angle_alpha   89.81478119
_cell_angle_beta   89.91737366
_cell_angle_gamma   89.92555237
_symmetry_Int_Tables_number   1
_chemical_formula_structural   BaSrDyWO6
_chemical_formula_sum   'Ba2 Sr2 Dy2 W2 O12'
_cell_volume   304.94535114
_cell_formula_units_Z   2
loop_
 _symmetry_equiv_pos_site_id
 _symmetry_equiv_pos_as_xyz
  1  'x, y, z'
loop_
 _atom_site_type_symbol
 _atom_site_label
 _atom_site_symmetry_multiplicity
 _atom_site_fract_x
 _atom_site_fract_y
 _atom_site_fract_z
 _atom_site_occupancy
  Ba  Ba0  1  0.35581803  0.20782557  0.25638551  1
  Ba  Ba1  1  0.34283879  0.24550880  0.75559866  1
  Sr  Sr2  1  0.84501928  0.69915438  0.25661194  1
  Sr  Sr3  1  0.85462523  0.75158733  0.75695288  1
  Dy  Dy4  1  0.34811217  0.72793382  0.50669557  1
  Dy  Dy5  1  0.84837610  0.22717687  0.00693230  1
  W  W6  1  0.84752190  0.22683309  0.50692654  1
  W  W7  1  0.34792364  0.72723943  0.00742521  1
  O  O8  1  0.08083528  0.51963532  0.96726507  1
  O  O9  1  0.64258397  0.96252042  0.46851772  1
  O  O10  1  0.58099556  0.43822727  0.48252410  1
  O  O11  1  0.90463805  0.26200685  0.27211258  1
  O  O12  1  0.13906859  0.98539013  0.97713119  1
  O  O13  1  0.42152390  0.72481573  0.77294105  1
  O  O14  1  0.11030804  0.01516846  0.52808005  1
  O  O15  1  0.27624264  0.72409290  0.24228597  1
  O  O16  1  0.05150258  0.49614894  0.54666394  1
  O  O17  1  0.61326218  0.93352628  0.04503706  1
  O  O18  1  0.55625808  0.46422395  0.03770761  1
  O  O19  1  0.79399186  0.19567244  0.74281132  1
