# generated using pymatgen
data_BaSrCeZrO6
_symmetry_space_group_name_H-M   'P 1'
_cell_length_a   6.04678679
_cell_length_b   6.12986612
_cell_length_c   8.60639381
_cell_angle_alpha   89.90251160
_cell_angle_beta   89.66687775
_cell_angle_gamma   89.76720428
_symmetry_Int_Tables_number   1
_chemical_formula_structural   BaSrCeZrO6
_chemical_formula_sum   'Ba2 Sr2 Ce2 Zr2 O12'
_cell_volume   318.99606305
_cell_formula_units_Z   2
loop_
 _symmetry_equiv_pos_site_id
 _symmetry_equiv_pos_as_xyz
  1  'x, y, z'
loop_
 _atom_site_type_symbol
 _atom_site_label
 _atom_site_symmetry_multiplicity
 _atom_site_fract_x
 _atom_site_fract_y
 _atom_site_fract_z
 _atom_site_occupancy
  Ba  Ba0  1  0.68552917  0.92364472  0.13901807  1
  Ba  Ba1  1  0.66880941  0.86534661  0.64431477  1
  Sr  Sr2  1  0.18667577  0.36251026  0.64651102  1
  Sr  Sr3  1  0.16776462  0.42806742  0.13929453  1
  Ce  Ce4  1  0.17852220  0.89426094  0.39153907  1
  Ce  Ce5  1  0.67872494  0.39472386  0.39157107  1
  Zr  Zr6  1  0.17912616  0.89441097  0.89104444  1
  Zr  Zr7  1  0.67834228  0.39401063  0.89116627  1
  O  O8  1  0.38998064  0.60648251  0.43667591  1
  O  O9  1  0.59017831  0.38319653  0.12943140  1
  O  O10  1  0.39311963  0.60662872  0.84699583  1
  O  O11  1  0.76746297  0.40517586  0.65127498  1
  O  O12  1  0.25307822  0.86007714  0.12994747  1
  O  O13  1  0.89846665  0.67508346  0.93188363  1
  O  O14  1  0.46012366  0.11643671  0.84803748  1
  O  O15  1  0.10908441  0.92804587  0.65129495  1
  O  O16  1  0.96492016  0.17899209  0.34111282  1
  O  O17  1  0.89943790  0.67592269  0.34846771  1
  O  O18  1  0.46048310  0.11247097  0.43007883  1
  O  O19  1  0.96488130  0.17938186  0.93333381  1
