# generated using pymatgen
data_BaTbEuWO6
_symmetry_space_group_name_H-M   'P 1'
_cell_length_a   5.99688435
_cell_length_b   6.08612061
_cell_length_c   8.36779499
_cell_angle_alpha   89.99157715
_cell_angle_beta   89.96725464
_cell_angle_gamma   90.20931244
_symmetry_Int_Tables_number   1
_chemical_formula_structural   BaTbEuWO6
_chemical_formula_sum   'Ba2 Tb2 Eu2 W2 O12'
_cell_volume   305.40369369
_cell_formula_units_Z   2
loop_
 _symmetry_equiv_pos_site_id
 _symmetry_equiv_pos_as_xyz
  1  'x, y, z'
loop_
 _atom_site_type_symbol
 _atom_site_label
 _atom_site_symmetry_multiplicity
 _atom_site_fract_x
 _atom_site_fract_y
 _atom_site_fract_z
 _atom_site_occupancy
  Ba  Ba0  1  0.73129660  0.27812964  0.51364058  1
  Ba  Ba1  1  0.23466358  0.74513555  0.01549233  1
  Tb  Tb2  1  0.73912853  0.75723678  0.26597086  1
  Tb  Tb3  1  0.73990554  0.75643307  0.76525539  1
  Eu  Eu4  1  0.24401887  0.79969811  0.51484543  1
  Eu  Eu5  1  0.75007117  0.21518737  0.01455586  1
  W  W6  1  0.23919426  0.26005191  0.26442719  1
  W  W7  1  0.23888709  0.26019734  0.76589417  1
  O  O8  1  0.42835957  0.53153414  0.30965552  1
  O  O9  1  0.49132192  0.04065605  0.29367360  1
  O  O10  1  0.96535075  0.45511287  0.21997339  1
  O  O11  1  0.02826681  0.00796757  0.23979005  1
  O  O12  1  0.49443457  0.04202427  0.73271543  1
  O  O13  1  0.69295353  0.79521358  0.01473699  1
  O  O14  1  0.02933036  0.00671016  0.79691923  1
  O  O15  1  0.96594369  0.45481652  0.81015289  1
  O  O16  1  0.42960912  0.53235650  0.72379047  1
  O  O17  1  0.18584682  0.24288675  0.51610470  1
  O  O18  1  0.83471119  0.74683553  0.51679951  1
  O  O19  1  0.32468173  0.26857501  0.01606172  1
