# generated using pymatgen
data_BaYBr5
_symmetry_space_group_name_H-M   'P 1'
_cell_length_a   4.61187458
_cell_length_b   9.24920845
_cell_length_c   13.07257557
_cell_angle_alpha   101.30165100
_cell_angle_beta   89.97435760
_cell_angle_gamma   89.86634827
_symmetry_Int_Tables_number   1
_chemical_formula_structural   BaYBr5
_chemical_formula_sum   'Ba2 Y2 Br10'
_cell_volume   546.81161409
_cell_formula_units_Z   2
loop_
 _symmetry_equiv_pos_site_id
 _symmetry_equiv_pos_as_xyz
  1  'x, y, z'
loop_
 _atom_site_type_symbol
 _atom_site_label
 _atom_site_symmetry_multiplicity
 _atom_site_fract_x
 _atom_site_fract_y
 _atom_site_fract_z
 _atom_site_occupancy
  Ba  Ba0  1  0.79627013  0.96192288  0.51188177  1
  Ba  Ba1  1  0.29577848  0.25487733  0.24334525  1
  Y  Y2  1  0.29613540  0.70313179  0.77245075  1
  Y  Y3  1  0.79594940  0.49590224  0.99068278  1
  Br  Br4  1  0.79599053  0.06180102  0.12235888  1
  Br  Br5  1  0.29589611  0.67532200  0.56417423  1
  Br  Br6  1  0.79662722  0.49220663  0.77285194  1
  Br  Br7  1  0.79685789  0.29388046  0.42462373  1
  Br  Br8  1  0.79605955  0.89729047  0.79599506  1
  Br  Br9  1  0.29609337  0.91129780  0.33672267  1
  Br  Br10  1  0.29671898  0.29573351  0.96743768  1
  Br  Br11  1  0.29635289  0.70999759  0.99333030  1
  Br  Br12  1  0.79561651  0.53244245  0.19935529  1
  Br  Br13  1  0.29613149  0.14723448  0.64625007  1
