# generated using pymatgen
data_BaZnSO
_symmetry_space_group_name_H-M   'P 1'
_cell_length_a   4.15000105
_cell_length_b   4.13628531
_cell_length_c   10.92040157
_cell_angle_alpha   100.86269379
_cell_angle_beta   100.82245636
_cell_angle_gamma   89.94695282
_symmetry_Int_Tables_number   1
_chemical_formula_structural   BaZnSO
_chemical_formula_sum   'Ba2 Zn2 S2 O2'
_cell_volume   180.70642348
_cell_formula_units_Z   2
loop_
 _symmetry_equiv_pos_site_id
 _symmetry_equiv_pos_as_xyz
  1  'x, y, z'
loop_
 _atom_site_type_symbol
 _atom_site_label
 _atom_site_symmetry_multiplicity
 _atom_site_fract_x
 _atom_site_fract_y
 _atom_site_fract_z
 _atom_site_occupancy
  Ba  Ba0  1  0.94945765  0.75582826  0.18344228  1
  Ba  Ba1  1  0.58800751  0.39624599  0.46809506  1
  Zn  Zn2  1  0.32729343  0.12902282  0.93716073  1
  Zn  Zn3  1  0.22550899  0.52980638  0.74088311  1
  S  S4  1  0.16621201  0.97480142  0.62017798  1
  S  S5  1  0.79745352  0.60459113  0.87843663  1
  O  O6  1  0.40826890  0.21889833  0.11879203  1
  O  O7  1  0.52671003  0.83521563  0.34887946  1
