# generated using pymatgen
data_Be2PdPt
_symmetry_space_group_name_H-M   'P 1'
_cell_length_a   4.01761770
_cell_length_b   4.02058792
_cell_length_c   4.00823402
_cell_angle_alpha   59.52787018
_cell_angle_beta   59.90397644
_cell_angle_gamma   59.87863922
_symmetry_Int_Tables_number   1
_chemical_formula_structural   Be2PdPt
_chemical_formula_sum   'Be2 Pd1 Pt1'
_cell_volume   45.54201120
_cell_formula_units_Z   1
loop_
 _symmetry_equiv_pos_site_id
 _symmetry_equiv_pos_as_xyz
  1  'x, y, z'
loop_
 _atom_site_type_symbol
 _atom_site_label
 _atom_site_symmetry_multiplicity
 _atom_site_fract_x
 _atom_site_fract_y
 _atom_site_fract_z
 _atom_site_occupancy
  Be  Be0  1  0.74124908  0.92965031  0.78539008  1
  Be  Be1  1  0.24113320  0.42944258  0.28561080  1
  Pd  Pd2  1  0.99161237  0.17958486  0.03522196  1
  Pt  Pt3  1  0.49153268  0.67989618  0.53544885  1
