# generated using pymatgen
data_Be4TeO7
_symmetry_space_group_name_H-M   'P 1'
_cell_length_a   4.76652145
_cell_length_b   4.98479605
_cell_length_c   5.79740191
_cell_angle_alpha   93.14100647
_cell_angle_beta   91.77034760
_cell_angle_gamma   115.56565857
_symmetry_Int_Tables_number   1
_chemical_formula_structural   Be4TeO7
_chemical_formula_sum   'Be4 Te1 O7'
_cell_volume   123.84610735
_cell_formula_units_Z   1
loop_
 _symmetry_equiv_pos_site_id
 _symmetry_equiv_pos_as_xyz
  1  'x, y, z'
loop_
 _atom_site_type_symbol
 _atom_site_label
 _atom_site_symmetry_multiplicity
 _atom_site_fract_x
 _atom_site_fract_y
 _atom_site_fract_z
 _atom_site_occupancy
  Be  Be0  1  0.94709486  0.76820660  0.13481478  1
  Be  Be1  1  0.40525544  0.81779301  0.86941403  1
  Be  Be2  1  0.09147168  0.23127207  0.01243675  1
  Be  Be3  1  0.83108890  0.84461039  0.60908657  1
  Te  Te4  1  0.47184744  0.27111548  0.50866926  1
  O  O5  1  0.75466317  0.95215750  0.01071331  1
  O  O6  1  0.49222434  0.60168362  0.69609910  1
  O  O7  1  0.70880270  0.07968831  0.56153244  1
  O  O8  1  0.79701185  0.60769057  0.36957791  1
  O  O9  1  0.19915497  0.01241433  0.76674855  1
  O  O10  1  0.21127756  0.11100865  0.23884329  1
  O  O11  1  0.13257490  0.58809334  0.01828982  1
