# generated using pymatgen
data_BeSiNi2
_symmetry_space_group_name_H-M   'P 1'
_cell_length_a   3.85133266
_cell_length_b   3.84082222
_cell_length_c   3.84091592
_cell_angle_alpha   59.60613632
_cell_angle_beta   60.00336075
_cell_angle_gamma   59.92929459
_symmetry_Int_Tables_number   1
_chemical_formula_structural   BeSiNi2
_chemical_formula_sum   'Be1 Si1 Ni2'
_cell_volume   40.03366304
_cell_formula_units_Z   1
loop_
 _symmetry_equiv_pos_site_id
 _symmetry_equiv_pos_as_xyz
  1  'x, y, z'
loop_
 _atom_site_type_symbol
 _atom_site_label
 _atom_site_symmetry_multiplicity
 _atom_site_fract_x
 _atom_site_fract_y
 _atom_site_fract_z
 _atom_site_occupancy
  Be  Be0  1  0.66372716  0.94871193  0.55354542  1
  Si  Si1  1  0.16398416  0.44868037  0.05351360  1
  Ni  Ni2  1  0.91369796  0.19898516  0.80333453  1
  Ni  Ni3  1  0.41404548  0.69941443  0.30297846  1
