# generated using pymatgen
data_BeSiIr2
_symmetry_space_group_name_H-M   'P 1'
_cell_length_a   4.13555765
_cell_length_b   4.13764143
_cell_length_c   4.14934826
_cell_angle_alpha   59.73965073
_cell_angle_beta   59.76383972
_cell_angle_gamma   60.03554153
_symmetry_Int_Tables_number   1
_chemical_formula_structural   BeSiIr2
_chemical_formula_sum   'Be1 Si1 Ir2'
_cell_volume   50.02965969
_cell_formula_units_Z   1
loop_
 _symmetry_equiv_pos_site_id
 _symmetry_equiv_pos_as_xyz
  1  'x, y, z'
loop_
 _atom_site_type_symbol
 _atom_site_label
 _atom_site_symmetry_multiplicity
 _atom_site_fract_x
 _atom_site_fract_y
 _atom_site_fract_z
 _atom_site_occupancy
  Be  Be0  1  0.41097811  0.31282255  0.66600358  1
  Si  Si1  1  0.91122752  0.81347078  0.16557464  1
  Ir  Ir2  1  0.16125189  0.06362616  0.41538420  1
  Ir  Ir3  1  0.66123247  0.56446522  0.91427439  1
