# generated using pymatgen
data_BeVOs2
_symmetry_space_group_name_H-M   'P 1'
_cell_length_a   4.16333246
_cell_length_b   4.16882896
_cell_length_c   4.15770245
_cell_angle_alpha   59.65177536
_cell_angle_beta   59.81444550
_cell_angle_gamma   60.19668198
_symmetry_Int_Tables_number   1
_chemical_formula_structural   BeVOs2
_chemical_formula_sum   'Be1 V1 Os2'
_cell_volume   50.89371490
_cell_formula_units_Z   1
loop_
 _symmetry_equiv_pos_site_id
 _symmetry_equiv_pos_as_xyz
  1  'x, y, z'
loop_
 _atom_site_type_symbol
 _atom_site_label
 _atom_site_symmetry_multiplicity
 _atom_site_fract_x
 _atom_site_fract_y
 _atom_site_fract_z
 _atom_site_occupancy
  Be  Be0  1  0.42611057  0.96558416  0.05102156  1
  V  V1  1  0.92615783  0.46535489  0.55082023  1
  Os  Os2  1  0.17627004  0.71550393  0.80107284  1
  Os  Os3  1  0.67591339  0.21545254  0.30109710  1
