# generated using pymatgen
data_Bi
_symmetry_space_group_name_H-M   'P 1'
_cell_length_a   3.19293380
_cell_length_b   4.10008669
_cell_length_c   11.18678188
_cell_angle_alpha   89.54959106
_cell_angle_beta   89.67568970
_cell_angle_gamma   89.04826355
_symmetry_Int_Tables_number   1
_chemical_formula_structural   Bi
_chemical_formula_sum   Bi4
_cell_volume   146.42260986
_cell_formula_units_Z   4
loop_
 _symmetry_equiv_pos_site_id
 _symmetry_equiv_pos_as_xyz
  1  'x, y, z'
loop_
 _atom_site_type_symbol
 _atom_site_label
 _atom_site_symmetry_multiplicity
 _atom_site_fract_x
 _atom_site_fract_y
 _atom_site_fract_z
 _atom_site_occupancy
  Bi  Bi0  1  0.01082794  0.96475649  0.97459054  1
  Bi  Bi1  1  0.01057270  0.46487826  0.22482826  1
  Bi  Bi2  1  0.01049703  0.96460766  0.47517553  1
  Bi  Bi3  1  0.01073818  0.46524459  0.72305423  1
