# generated using pymatgen
data_Ca(GaP)2
_symmetry_space_group_name_H-M   'P 1'
_cell_length_a   3.97953320
_cell_length_b   3.98487282
_cell_length_c   15.39431190
_cell_angle_alpha   89.75171661
_cell_angle_beta   89.88827515
_cell_angle_gamma   119.52947998
_symmetry_Int_Tables_number   1
_chemical_formula_structural   Ca(GaP)2
_chemical_formula_sum   'Ca2 Ga4 P4'
_cell_volume   212.40673732
_cell_formula_units_Z   2
loop_
 _symmetry_equiv_pos_site_id
 _symmetry_equiv_pos_as_xyz
  1  'x, y, z'
loop_
 _atom_site_type_symbol
 _atom_site_label
 _atom_site_symmetry_multiplicity
 _atom_site_fract_x
 _atom_site_fract_y
 _atom_site_fract_z
 _atom_site_occupancy
  Ca  Ca0  1  0.59544516  0.05718500  0.36725965  1
  Ca  Ca1  1  0.59582233  0.05776211  0.68639153  1
  Ga  Ga2  1  0.92940581  0.72364074  0.01835606  1
  Ga  Ga3  1  0.92942184  0.72415501  0.85460931  1
  Ga  Ga4  1  0.92886108  0.72392792  0.19259317  1
  Ga  Ga5  1  0.26241627  0.39068380  0.51866877  1
  P  P6  1  0.92933464  0.72368270  0.55091798  1
  P  P7  1  0.59499383  0.05662392  0.05361623  1
  P  P8  1  0.26263997  0.39094999  0.26333544  1
  P  P9  1  0.26200217  0.39056805  0.80388904  1
