# generated using pymatgen
data_Ca(MnS2)4
_symmetry_space_group_name_H-M   'P 1'
_cell_length_a   6.98755169
_cell_length_b   7.00422955
_cell_length_c   7.00727940
_cell_angle_alpha   60.63918304
_cell_angle_beta   60.60729980
_cell_angle_gamma   60.66325760
_symmetry_Int_Tables_number   1
_chemical_formula_structural   Ca(MnS2)4
_chemical_formula_sum   'Ca1 Mn4 S8'
_cell_volume   245.99010509
_cell_formula_units_Z   1
loop_
 _symmetry_equiv_pos_site_id
 _symmetry_equiv_pos_as_xyz
  1  'x, y, z'
loop_
 _atom_site_type_symbol
 _atom_site_label
 _atom_site_symmetry_multiplicity
 _atom_site_fract_x
 _atom_site_fract_y
 _atom_site_fract_z
 _atom_site_occupancy
  Ca  Ca0  1  0.76852447  0.16661528  0.21584517  1
  Mn  Mn1  1  0.26863721  0.66499043  0.71656609  1
  Mn  Mn2  1  0.26905793  0.16660948  0.71682042  1
  Mn  Mn3  1  0.26931182  0.66525757  0.21687174  1
  Mn  Mn4  1  0.76819146  0.66481298  0.21635330  1
  S  S5  1  0.03404381  0.43167430  0.94850004  1
  S  S6  1  0.03815052  0.89070988  0.47189569  1
  S  S7  1  0.50589162  0.89908344  0.48320892  1
  S  S8  1  0.03093391  0.42682257  0.45387077  1
  S  S9  1  0.49633321  0.44317397  0.96216953  1
  S  S10  1  0.03859574  0.89287943  0.96193171  1
  S  S11  1  0.50124967  0.43801981  0.47297791  1
  S  S12  1  0.50748318  0.90772027  0.97798520  1
