# generated using pymatgen
data_Ca(PRh)2
_symmetry_space_group_name_H-M   'P 1'
_cell_length_a   3.98764229
_cell_length_b   4.00036287
_cell_length_c   5.81237984
_cell_angle_alpha   110.27763367
_cell_angle_beta   110.00398254
_cell_angle_gamma   90.20843506
_symmetry_Int_Tables_number   1
_chemical_formula_structural   Ca(PRh)2
_chemical_formula_sum   'Ca1 P2 Rh2'
_cell_volume   80.93652874
_cell_formula_units_Z   1
loop_
 _symmetry_equiv_pos_site_id
 _symmetry_equiv_pos_as_xyz
  1  'x, y, z'
loop_
 _atom_site_type_symbol
 _atom_site_label
 _atom_site_symmetry_multiplicity
 _atom_site_fract_x
 _atom_site_fract_y
 _atom_site_fract_z
 _atom_site_occupancy
  Ca  Ca0  1  0.48256081  0.24035673  0.68449044  1
  P  P1  1  0.09991854  0.85862458  0.91884643  1
  P  P2  1  0.86648244  0.62499738  0.44906244  1
  Rh  Rh3  1  0.73325443  0.99297947  0.18407759  1
  Rh  Rh4  1  0.23366748  0.49355230  0.18442884  1
