# generated using pymatgen
data_Ca(SiAu)2
_symmetry_space_group_name_H-M   'P 1'
_cell_length_a   4.36434841
_cell_length_b   4.36052656
_cell_length_c   5.95078897
_cell_angle_alpha   111.52124786
_cell_angle_beta   111.84264374
_cell_angle_gamma   90.23456573
_symmetry_Int_Tables_number   1
_chemical_formula_structural   Ca(SiAu)2
_chemical_formula_sum   'Ca1 Si2 Au2'
_cell_volume   96.48501467
_cell_formula_units_Z   1
loop_
 _symmetry_equiv_pos_site_id
 _symmetry_equiv_pos_as_xyz
  1  'x, y, z'
loop_
 _atom_site_type_symbol
 _atom_site_label
 _atom_site_symmetry_multiplicity
 _atom_site_fract_x
 _atom_site_fract_y
 _atom_site_fract_z
 _atom_site_occupancy
  Ca  Ca0  1  0.93959057  0.72773921  0.63226670  1
  Si  Si1  1  0.55220419  0.33965820  0.85802114  1
  Si  Si2  1  0.32582191  0.11332242  0.40455365  1
  Au  Au3  1  0.68905413  0.97670430  0.13189751  1
  Au  Au4  1  0.18917455  0.47733745  0.13196331  1
