# generated using pymatgen
data_Ca2AgSn
_symmetry_space_group_name_H-M   'P 1'
_cell_length_a   5.33582211
_cell_length_b   5.34326935
_cell_length_c   5.34316301
_cell_angle_alpha   60.02461243
_cell_angle_beta   60.15526199
_cell_angle_gamma   60.20151520
_symmetry_Int_Tables_number   1
_chemical_formula_structural   Ca2AgSn
_chemical_formula_sum   'Ca2 Ag1 Sn1'
_cell_volume   108.02856405
_cell_formula_units_Z   1
loop_
 _symmetry_equiv_pos_site_id
 _symmetry_equiv_pos_as_xyz
  1  'x, y, z'
loop_
 _atom_site_type_symbol
 _atom_site_label
 _atom_site_symmetry_multiplicity
 _atom_site_fract_x
 _atom_site_fract_y
 _atom_site_fract_z
 _atom_site_occupancy
  Ca  Ca0  1  0.20715435  0.13797516  0.29258654  1
  Ca  Ca1  1  0.70728672  0.63764375  0.79219931  1
  Ag  Ag2  1  0.45728964  0.38748783  0.54256660  1
  Sn  Sn3  1  0.95750833  0.88778311  0.04232475  1
