# generated using pymatgen
data_Ca2Al2O5
_symmetry_space_group_name_H-M   'P 1'
_cell_length_a   5.32174969
_cell_length_b   5.39119482
_cell_length_c   7.51836491
_cell_angle_alpha   90.16982269
_cell_angle_beta   90.04899597
_cell_angle_gamma   89.85076141
_symmetry_Int_Tables_number   1
_chemical_formula_structural   Ca2Al2O5
_chemical_formula_sum   'Ca4 Al4 O10'
_cell_volume   215.70456343
_cell_formula_units_Z   2
loop_
 _symmetry_equiv_pos_site_id
 _symmetry_equiv_pos_as_xyz
  1  'x, y, z'
loop_
 _atom_site_type_symbol
 _atom_site_label
 _atom_site_symmetry_multiplicity
 _atom_site_fract_x
 _atom_site_fract_y
 _atom_site_fract_z
 _atom_site_occupancy
  Ca  Ca0  1  0.56638998  0.67355263  0.19909997  1
  Ca  Ca1  1  0.06578368  0.13709661  0.19848394  1
  Ca  Ca2  1  0.07585774  0.13827157  0.75399011  1
  Ca  Ca3  1  0.57757801  0.67746794  0.75330627  1
  Al  Al4  1  0.52722770  0.23231690  0.47602054  1
  Al  Al5  1  0.02797231  0.56949455  0.47608775  1
  Al  Al6  1  0.58413750  0.15611386  0.97620457  1
  Al  Al7  1  0.08378860  0.65495312  0.97642589  1
  O  O8  1  0.33583665  0.40395251  0.97616196  1
  O  O9  1  0.60854948  0.12293088  0.25640804  1
  O  O10  1  0.60786396  0.12118262  0.69484687  1
  O  O11  1  0.10818847  0.68772006  0.69398868  1
  O  O12  1  0.83547431  0.40409103  0.97646683  1
  O  O13  1  0.18271388  0.26552269  0.47653893  1
  O  O14  1  0.10893524  0.68866241  0.26054814  1
  O  O15  1  0.68457288  0.53449279  0.47596696  1
  O  O16  1  0.33514094  0.90662754  0.97580880  1
  O  O17  1  0.83611935  0.90300870  0.97630012  1
