# generated using pymatgen
data_Ca2Bi
_symmetry_space_group_name_H-M   'P 1'
_cell_length_a   5.25088263
_cell_length_b   5.20982790
_cell_length_c   8.74405003
_cell_angle_alpha   107.44911957
_cell_angle_beta   107.27146912
_cell_angle_gamma   90.23548889
_symmetry_Int_Tables_number   1
_chemical_formula_structural   Ca2Bi
_chemical_formula_sum   'Ca4 Bi2'
_cell_volume   216.76506543
_cell_formula_units_Z   2
loop_
 _symmetry_equiv_pos_site_id
 _symmetry_equiv_pos_as_xyz
  1  'x, y, z'
loop_
 _atom_site_type_symbol
 _atom_site_label
 _atom_site_symmetry_multiplicity
 _atom_site_fract_x
 _atom_site_fract_y
 _atom_site_fract_z
 _atom_site_occupancy
  Ca  Ca0  1  0.62244093  0.20444606  0.20639430  1
  Ca  Ca1  1  0.87211412  0.45492697  0.70647007  1
  Ca  Ca2  1  0.12151078  0.70613986  0.20641704  1
  Ca  Ca3  1  0.37304690  0.95609444  0.70614457  1
  Bi  Bi4  1  0.50291383  0.58768493  0.96620208  1
  Bi  Bi5  1  0.24576573  0.32937953  0.45241052  1
