# generated using pymatgen
data_Ca2Cu(ClO)2
_symmetry_space_group_name_H-M   'P 1'
_cell_length_a   3.90477967
_cell_length_b   3.90987754
_cell_length_c   8.02150345
_cell_angle_alpha   103.99079895
_cell_angle_beta   103.86535645
_cell_angle_gamma   90.16012573
_symmetry_Int_Tables_number   1
_chemical_formula_structural   Ca2Cu(ClO)2
_chemical_formula_sum   'Ca2 Cu1 Cl2 O2'
_cell_volume   115.13037701
_cell_formula_units_Z   1
loop_
 _symmetry_equiv_pos_site_id
 _symmetry_equiv_pos_as_xyz
  1  'x, y, z'
loop_
 _atom_site_type_symbol
 _atom_site_label
 _atom_site_symmetry_multiplicity
 _atom_site_fract_x
 _atom_site_fract_y
 _atom_site_fract_z
 _atom_site_occupancy
  Ca  Ca0  1  0.18897797  0.97815555  0.22020225  1
  Ca  Ca1  1  0.97445697  0.76442409  0.78190804  1
  Cu  Cu2  1  0.58293760  0.37095094  0.00158717  1
  Cl  Cl3  1  0.76309264  0.55122846  0.36350396  1
  Cl  Cl4  1  0.40069947  0.18860772  0.63617295  1
  O  O5  1  0.58163053  0.86938852  0.00033343  1
  O  O6  1  0.08102266  0.36900872  0.00010014  1
