# generated using pymatgen
data_Ca2CdN2
_symmetry_space_group_name_H-M   'P 1'
_cell_length_a   3.76825547
_cell_length_b   3.73537350
_cell_length_c   6.91809988
_cell_angle_alpha   90.09698486
_cell_angle_beta   89.89213562
_cell_angle_gamma   119.89185333
_symmetry_Int_Tables_number   1
_chemical_formula_structural   Ca2CdN2
_chemical_formula_sum   'Ca2 Cd1 N2'
_cell_volume   84.42345898
_cell_formula_units_Z   1
loop_
 _symmetry_equiv_pos_site_id
 _symmetry_equiv_pos_as_xyz
  1  'x, y, z'
loop_
 _atom_site_type_symbol
 _atom_site_label
 _atom_site_symmetry_multiplicity
 _atom_site_fract_x
 _atom_site_fract_y
 _atom_site_fract_z
 _atom_site_occupancy
  Ca  Ca0  1  0.07547984  0.85217208  0.55371243  1
  Ca  Ca1  1  0.40894806  0.51964682  0.89430970  1
  Cd  Cd2  1  0.74301958  0.18607236  0.22613283  1
  N  N3  1  0.40824351  0.51980197  0.35615832  1
  N  N4  1  0.74242628  0.18600151  0.76257545  1
