# generated using pymatgen
data_Ca2TaInO6
_symmetry_space_group_name_H-M   'P 1'
_cell_length_a   5.63506031
_cell_length_b   5.87967110
_cell_length_c   8.02665901
_cell_angle_alpha   89.95183563
_cell_angle_beta   89.93715668
_cell_angle_gamma   90.07347870
_symmetry_Int_Tables_number   1
_chemical_formula_structural   Ca2TaInO6
_chemical_formula_sum   'Ca4 Ta2 In2 O12'
_cell_volume   265.94121136
_cell_formula_units_Z   2
loop_
 _symmetry_equiv_pos_site_id
 _symmetry_equiv_pos_as_xyz
  1  'x, y, z'
loop_
 _atom_site_type_symbol
 _atom_site_label
 _atom_site_symmetry_multiplicity
 _atom_site_fract_x
 _atom_site_fract_y
 _atom_site_fract_z
 _atom_site_occupancy
  Ca  Ca0  1  0.56349725  0.52491945  0.47913545  1
  Ca  Ca1  1  0.06302509  0.91332650  0.97995985  1
  Ca  Ca2  1  0.09178847  0.02494755  0.48514518  1
  Ca  Ca3  1  0.59100264  0.41377056  0.98558897  1
  Ta  Ta4  1  0.57822073  0.96985817  0.73304951  1
  Ta  Ta5  1  0.07802072  0.46944976  0.23324232  1
  In  In6  1  0.57777929  0.96873558  0.23318715  1
  In  In7  1  0.07786389  0.46938133  0.73292577  1
  O  O8  1  0.75890595  0.68178052  0.79255182  1
  O  O9  1  0.86843348  0.15874386  0.78455222  1
  O  O10  1  0.18640861  0.51391351  0.99497086  1
  O  O11  1  0.28705186  0.78029585  0.67659265  1
  O  O12  1  0.36930072  0.28087097  0.28456312  1
  O  O13  1  0.25943297  0.75532395  0.29322547  1
  O  O14  1  0.96991199  0.42537379  0.47106797  1
  O  O15  1  0.47017699  0.01250609  0.97028232  1
  O  O16  1  0.89317590  0.18120445  0.16894914  1
  O  O17  1  0.39392906  0.25511825  0.66914922  1
  O  O18  1  0.68594384  0.92530358  0.49501067  1
  O  O19  1  0.78613764  0.65928894  0.17921333  1
