# generated using pymatgen
data_Ca2TlCd
_symmetry_space_group_name_H-M   'P 1'
_cell_length_a   5.44059515
_cell_length_b   5.43069029
_cell_length_c   5.41773701
_cell_angle_alpha   59.81447983
_cell_angle_beta   59.92043686
_cell_angle_gamma   59.90782547
_symmetry_Int_Tables_number   1
_chemical_formula_structural   Ca2TlCd
_chemical_formula_sum   'Ca2 Tl1 Cd1'
_cell_volume   112.88297064
_cell_formula_units_Z   1
loop_
 _symmetry_equiv_pos_site_id
 _symmetry_equiv_pos_as_xyz
  1  'x, y, z'
loop_
 _atom_site_type_symbol
 _atom_site_label
 _atom_site_symmetry_multiplicity
 _atom_site_fract_x
 _atom_site_fract_y
 _atom_site_fract_z
 _atom_site_occupancy
  Ca  Ca0  1  0.26207021  0.95406240  0.05613058  1
  Ca  Ca1  1  0.76261830  0.45411253  0.55613965  1
  Tl  Tl2  1  0.01198466  0.70423234  0.80582631  1
  Cd  Cd3  1  0.51199341  0.20407048  0.30558383  1
