# generated using pymatgen
data_Ca2WN2
_symmetry_space_group_name_H-M   'P 1'
_cell_length_a   3.42234302
_cell_length_b   6.83417797
_cell_length_c   7.79260254
_cell_angle_alpha   105.51051331
_cell_angle_beta   102.91986847
_cell_angle_gamma   90.51757050
_symmetry_Int_Tables_number   1
_chemical_formula_structural   Ca2WN2
_chemical_formula_sum   'Ca4 W2 N4'
_cell_volume   170.71639779
_cell_formula_units_Z   2
loop_
 _symmetry_equiv_pos_site_id
 _symmetry_equiv_pos_as_xyz
  1  'x, y, z'
loop_
 _atom_site_type_symbol
 _atom_site_label
 _atom_site_symmetry_multiplicity
 _atom_site_fract_x
 _atom_site_fract_y
 _atom_site_fract_z
 _atom_site_occupancy
  Ca  Ca0  1  0.67958391  0.20663317  0.89075768  1
  Ca  Ca1  1  0.01454275  0.89610094  0.55848420  1
  Ca  Ca2  1  0.01599612  0.36645249  0.56113219  1
  Ca  Ca3  1  0.34035370  0.55491197  0.21066317  1
  W  W4  1  0.34102994  0.00001991  0.21708941  1
  W  W5  1  0.68845993  0.71148533  0.91252470  1
  N  N6  1  0.83782548  0.81764460  0.21483092  1
  N  N7  1  0.49445370  0.12029206  0.51976180  1
  N  N8  1  0.18790065  0.93011034  0.91338760  1
  N  N9  1  0.17755659  0.49438363  0.89498305  1
