# generated using pymatgen
data_Ca3Tl
_symmetry_space_group_name_H-M   'P 1'
_cell_length_a   5.10265827
_cell_length_b   5.09322834
_cell_length_c   5.10101223
_cell_angle_alpha   89.87726593
_cell_angle_beta   89.92481995
_cell_angle_gamma   89.93254852
_symmetry_Int_Tables_number   1
_chemical_formula_structural   Ca3Tl
_chemical_formula_sum   'Ca3 Tl1'
_cell_volume   132.56971611
_cell_formula_units_Z   1
loop_
 _symmetry_equiv_pos_site_id
 _symmetry_equiv_pos_as_xyz
  1  'x, y, z'
loop_
 _atom_site_type_symbol
 _atom_site_label
 _atom_site_symmetry_multiplicity
 _atom_site_fract_x
 _atom_site_fract_y
 _atom_site_fract_z
 _atom_site_occupancy
  Ca  Ca0  1  0.13387948  0.17203964  0.30876666  1
  Ca  Ca1  1  0.63416255  0.67210919  0.30874786  1
  Ca  Ca2  1  0.13366394  0.67205817  0.80889755  1
  Tl  Tl3  1  0.63416141  0.17206524  0.80907172  1
