# generated using pymatgen
data_Ca4GaSn3
_symmetry_space_group_name_H-M   'P 1'
_cell_length_a   5.29635286
_cell_length_b   5.29935455
_cell_length_c   8.25498104
_cell_angle_alpha   89.94965363
_cell_angle_beta   89.90496063
_cell_angle_gamma   89.94747925
_symmetry_Int_Tables_number   1
_chemical_formula_structural   Ca4GaSn3
_chemical_formula_sum   'Ca4 Ga1 Sn3'
_cell_volume   231.69412511
_cell_formula_units_Z   1
loop_
 _symmetry_equiv_pos_site_id
 _symmetry_equiv_pos_as_xyz
  1  'x, y, z'
loop_
 _atom_site_type_symbol
 _atom_site_label
 _atom_site_symmetry_multiplicity
 _atom_site_fract_x
 _atom_site_fract_y
 _atom_site_fract_z
 _atom_site_occupancy
  Ca  Ca0  1  0.01897729  0.24664786  0.89605939  1
  Ca  Ca1  1  0.01867019  0.24689621  0.40277621  1
  Ca  Ca2  1  0.51863229  0.74685168  0.40249208  1
  Ca  Ca3  1  0.51860154  0.74685442  0.89861572  1
  Ga  Ga4  1  0.51928300  0.24692482  0.65164757  1
  Sn  Sn5  1  0.01912977  0.74698365  0.14962216  1
  Sn  Sn6  1  0.01876797  0.74658394  0.64884108  1
  Sn  Sn7  1  0.51938653  0.24685042  0.14877361  1
