# generated using pymatgen
data_CaCdHg2
_symmetry_space_group_name_H-M   'P 1'
_cell_length_a   5.27123260
_cell_length_b   5.27371645
_cell_length_c   5.26825094
_cell_angle_alpha   59.79228973
_cell_angle_beta   59.98875809
_cell_angle_gamma   59.92133713
_symmetry_Int_Tables_number   1
_chemical_formula_structural   CaCdHg2
_chemical_formula_sum   'Ca1 Cd1 Hg2'
_cell_volume   103.32352944
_cell_formula_units_Z   1
loop_
 _symmetry_equiv_pos_site_id
 _symmetry_equiv_pos_as_xyz
  1  'x, y, z'
loop_
 _atom_site_type_symbol
 _atom_site_label
 _atom_site_symmetry_multiplicity
 _atom_site_fract_x
 _atom_site_fract_y
 _atom_site_fract_z
 _atom_site_occupancy
  Ca  Ca0  1  0.30900350  0.84330785  0.18424293  1
  Cd  Cd1  1  0.80885333  0.34330094  0.68448991  1
  Hg  Hg2  1  0.05888647  0.59338778  0.93480802  1
  Hg  Hg3  1  0.55907238  0.09317570  0.43476242  1
