# generated using pymatgen
data_CaEuZnWO6
_symmetry_space_group_name_H-M   'P 1'
_cell_length_a   5.65104961
_cell_length_b   5.66193342
_cell_length_c   5.66392088
_cell_angle_alpha   59.85898972
_cell_angle_beta   59.79682541
_cell_angle_gamma   59.72033691
_symmetry_Int_Tables_number   1
_chemical_formula_structural   CaEuZnWO6
_chemical_formula_sum   'Ca1 Eu1 Zn1 W1 O6'
_cell_volume   127.53802169
_cell_formula_units_Z   1
loop_
 _symmetry_equiv_pos_site_id
 _symmetry_equiv_pos_as_xyz
  1  'x, y, z'
loop_
 _atom_site_type_symbol
 _atom_site_label
 _atom_site_symmetry_multiplicity
 _atom_site_fract_x
 _atom_site_fract_y
 _atom_site_fract_z
 _atom_site_occupancy
  Ca  Ca0  1  0.43358117  0.14138408  0.63466072  1
  Eu  Eu1  1  0.93375582  0.64203846  0.13606152  1
  Zn  Zn2  1  0.18421651  0.89159948  0.38551235  1
  W  W3  1  0.68354821  0.39252475  0.88500190  1
  O  O4  1  0.92428976  0.15083286  0.12640208  1
  O  O5  1  0.92454123  0.63304269  0.64370900  1
  O  O6  1  0.92386818  0.15171626  0.64334011  1
  O  O7  1  0.44176149  0.63305175  0.64371669  1
  O  O8  1  0.44206470  0.15112689  0.12653397  1
  O  O9  1  0.44228679  0.63364619  0.12662041  1
