# generated using pymatgen
data_CaGa2
_symmetry_space_group_name_H-M   'P 1'
_cell_length_a   4.23335314
_cell_length_b   4.24471092
_cell_length_c   4.28728867
_cell_angle_alpha   89.82020569
_cell_angle_beta   89.76922607
_cell_angle_gamma   120.24102020
_symmetry_Int_Tables_number   1
_chemical_formula_structural   CaGa2
_chemical_formula_sum   'Ca1 Ga2'
_cell_volume   66.55409638
_cell_formula_units_Z   1
loop_
 _symmetry_equiv_pos_site_id
 _symmetry_equiv_pos_as_xyz
  1  'x, y, z'
loop_
 _atom_site_type_symbol
 _atom_site_label
 _atom_site_symmetry_multiplicity
 _atom_site_fract_x
 _atom_site_fract_y
 _atom_site_fract_z
 _atom_site_occupancy
  Ca  Ca0  1  0.77474344  0.89034879  0.06378365  1
  Ga  Ga1  1  0.10837294  0.55822992  0.56330884  1
  Ga  Ga2  1  0.44130075  0.22373657  0.56281012  1
