# generated using pymatgen
data_CaHF
_symmetry_space_group_name_H-M   'P 1'
_cell_length_a   3.89624166
_cell_length_b   3.89221859
_cell_length_c   3.86063766
_cell_angle_alpha   59.87898254
_cell_angle_beta   60.01258469
_cell_angle_gamma   59.71036530
_symmetry_Int_Tables_number   1
_chemical_formula_structural   CaHF
_chemical_formula_sum   'Ca1 H1 F1'
_cell_volume   41.27351676
_cell_formula_units_Z   1
loop_
 _symmetry_equiv_pos_site_id
 _symmetry_equiv_pos_as_xyz
  1  'x, y, z'
loop_
 _atom_site_type_symbol
 _atom_site_label
 _atom_site_symmetry_multiplicity
 _atom_site_fract_x
 _atom_site_fract_y
 _atom_site_fract_z
 _atom_site_occupancy
  Ca  Ca0  1  0.80716950  0.49645406  0.53979242  1
  H  H1  1  0.55680442  0.24637963  0.28926912  1
  F  F2  1  0.05690266  0.74729639  0.79013669  1
