# generated using pymatgen
data_CaSmCd2
_symmetry_space_group_name_H-M   'P 1'
_cell_length_a   5.37881041
_cell_length_b   5.38289309
_cell_length_c   5.36718416
_cell_angle_alpha   59.90229416
_cell_angle_beta   59.97625351
_cell_angle_gamma   59.79892731
_symmetry_Int_Tables_number   1
_chemical_formula_structural   CaSmCd2
_chemical_formula_sum   'Ca1 Sm1 Cd2'
_cell_volume   109.61520275
_cell_formula_units_Z   1
loop_
 _symmetry_equiv_pos_site_id
 _symmetry_equiv_pos_as_xyz
  1  'x, y, z'
loop_
 _atom_site_type_symbol
 _atom_site_label
 _atom_site_symmetry_multiplicity
 _atom_site_fract_x
 _atom_site_fract_y
 _atom_site_fract_z
 _atom_site_occupancy
  Ca  Ca0  1  0.26214519  0.62565589  0.80479199  1
  Sm  Sm1  1  0.76231343  0.12565146  0.30497664  1
  Cd  Cd2  1  0.01232236  0.37542251  0.55458194  1
  Cd  Cd3  1  0.51243198  0.87541044  0.05476679  1
