# generated using pymatgen
data_CaYbPb2
_symmetry_space_group_name_H-M   'P 1'
_cell_length_a   5.54893875
_cell_length_b   5.55288935
_cell_length_c   5.53306437
_cell_angle_alpha   59.82386017
_cell_angle_beta   59.82556915
_cell_angle_gamma   60.00087357
_symmetry_Int_Tables_number   1
_chemical_formula_structural   CaYbPb2
_chemical_formula_sum   'Ca1 Yb1 Pb2'
_cell_volume   120.23386151
_cell_formula_units_Z   1
loop_
 _symmetry_equiv_pos_site_id
 _symmetry_equiv_pos_as_xyz
  1  'x, y, z'
loop_
 _atom_site_type_symbol
 _atom_site_label
 _atom_site_symmetry_multiplicity
 _atom_site_fract_x
 _atom_site_fract_y
 _atom_site_fract_z
 _atom_site_occupancy
  Ca  Ca0  1  0.89041817  0.33963338  0.08626712  1
  Yb  Yb1  1  0.39008933  0.83968461  0.58627677  1
  Pb  Pb2  1  0.63994789  0.08907735  0.83636564  1
  Pb  Pb3  1  0.14025193  0.58922511  0.33596823  1
