# generated using pymatgen
data_CaZnPb
_symmetry_space_group_name_H-M   'P 1'
_cell_length_a   4.87747622
_cell_length_b   4.85075140
_cell_length_c   7.92761421
_cell_angle_alpha   89.95487213
_cell_angle_beta   89.98404694
_cell_angle_gamma   120.27539062
_symmetry_Int_Tables_number   1
_chemical_formula_structural   CaZnPb
_chemical_formula_sum   'Ca2 Zn2 Pb2'
_cell_volume   161.98140931
_cell_formula_units_Z   2
loop_
 _symmetry_equiv_pos_site_id
 _symmetry_equiv_pos_as_xyz
  1  'x, y, z'
loop_
 _atom_site_type_symbol
 _atom_site_label
 _atom_site_symmetry_multiplicity
 _atom_site_fract_x
 _atom_site_fract_y
 _atom_site_fract_z
 _atom_site_occupancy
  Ca  Ca0  1  0.82257551  0.24595146  0.29530957  1
  Ca  Ca1  1  0.82231510  0.24598728  0.79549551  1
  Zn  Zn2  1  0.15583032  0.91330361  0.54553592  1
  Zn  Zn3  1  0.48878664  0.57953578  0.04504012  1
  Pb  Pb4  1  0.15578261  0.91333628  0.04544551  1
  Pb  Pb5  1  0.48909000  0.57939917  0.54592443  1
