# generated using pymatgen
data_Cd(GaSe2)2
_symmetry_space_group_name_H-M   'P 1'
_cell_length_a   5.91441536
_cell_length_b   5.92220974
_cell_length_c   6.79107761
_cell_angle_alpha   115.75788879
_cell_angle_beta   115.52722168
_cell_angle_gamma   90.00590515
_symmetry_Int_Tables_number   1
_chemical_formula_structural   Cd(GaSe2)2
_chemical_formula_sum   'Cd1 Ga2 Se4'
_cell_volume   188.11085202
_cell_formula_units_Z   1
loop_
 _symmetry_equiv_pos_site_id
 _symmetry_equiv_pos_as_xyz
  1  'x, y, z'
loop_
 _atom_site_type_symbol
 _atom_site_label
 _atom_site_symmetry_multiplicity
 _atom_site_fract_x
 _atom_site_fract_y
 _atom_site_fract_z
 _atom_site_occupancy
  Cd  Cd0  1  0.94653749  0.91848052  0.47295660  1
  Ga  Ga1  1  0.19482654  0.66810447  0.97271794  1
  Ga  Ga2  1  0.44663468  0.41879004  0.47295785  1
  Se  Se3  1  0.80951077  0.79071182  0.74842995  1
  Se  Se4  1  0.35731733  0.31380513  0.74874467  1
  Se  Se5  1  0.54790366  0.05614414  0.19988465  1
  Se  Se6  1  0.07345311  0.51415473  0.19947468  1
