# generated using pymatgen
data_Cd(Mo3Se4)2
_symmetry_space_group_name_H-M   'P 1'
_cell_length_a   6.78682995
_cell_length_b   6.78294563
_cell_length_c   6.81803989
_cell_angle_alpha   91.81572723
_cell_angle_beta   91.27849579
_cell_angle_gamma   91.08580780
_symmetry_Int_Tables_number   1
_chemical_formula_structural   Cd(Mo3Se4)2
_chemical_formula_sum   'Cd1 Mo6 Se8'
_cell_volume   313.57003410
_cell_formula_units_Z   1
loop_
 _symmetry_equiv_pos_site_id
 _symmetry_equiv_pos_as_xyz
  1  'x, y, z'
loop_
 _atom_site_type_symbol
 _atom_site_label
 _atom_site_symmetry_multiplicity
 _atom_site_fract_x
 _atom_site_fract_y
 _atom_site_fract_z
 _atom_site_occupancy
  Cd  Cd0  1  0.20712863  0.25193706  0.79644442  1
  Mo  Mo1  1  0.43826041  0.80115587  0.20343417  1
  Mo  Mo2  1  0.62169123  0.48730937  0.34075132  1
  Mo  Mo3  1  0.78939193  0.02045523  0.23214203  1
  Mo  Mo4  1  0.65378827  0.83770454  0.55565393  1
  Mo  Mo5  1  0.97354484  0.70127082  0.37181094  1
  Mo  Mo6  1  0.75949073  0.66873074  0.02072631  1
  Se  Se7  1  0.82704264  0.51431417  0.66498590  1
  Se  Se8  1  0.33199042  0.63507175  0.53172272  1
  Se  Se9  1  0.94793773  0.38135222  0.16851999  1
  Se  Se10  1  0.47078350  0.12578006  0.40593582  1
  Se  Se11  1  0.59095883  0.99374139  0.91187048  1
  Se  Se12  1  0.97692728  0.02504212  0.55706048  1
  Se  Se13  1  0.08046540  0.87119305  0.04736417  1
  Se  Se14  1  0.43190673  0.48036113  0.01360385  1
