# generated using pymatgen
data_Cd3(InSe3)2
_symmetry_space_group_name_H-M   'P 1'
_cell_length_a   4.34687901
_cell_length_b   7.57883263
_cell_length_c   10.12246132
_cell_angle_alpha   98.07205963
_cell_angle_beta   90.13455963
_cell_angle_gamma   90.06669617
_symmetry_Int_Tables_number   1
_chemical_formula_structural   Cd3(InSe3)2
_chemical_formula_sum   'Cd3 In2 Se6'
_cell_volume   330.17178917
_cell_formula_units_Z   1
loop_
 _symmetry_equiv_pos_site_id
 _symmetry_equiv_pos_as_xyz
  1  'x, y, z'
loop_
 _atom_site_type_symbol
 _atom_site_label
 _atom_site_symmetry_multiplicity
 _atom_site_fract_x
 _atom_site_fract_y
 _atom_site_fract_z
 _atom_site_occupancy
  Cd  Cd0  1  0.16420721  0.42227364  0.21720318  1
  Cd  Cd1  1  0.16472933  0.00372164  0.37035951  1
  Cd  Cd2  1  0.66467458  0.22710107  0.89569068  1
  In  In3  1  0.66443580  0.57470697  0.54906785  1
  In  In4  1  0.16439472  0.76866633  0.89571512  1
  Se  Se5  1  0.16437484  0.05628995  0.80459505  1
  Se  Se6  1  0.66473550  0.56222647  0.81400788  1
  Se  Se7  1  0.66444975  0.88122594  0.48667765  1
  Se  Se8  1  0.16457792  0.73554462  0.14655805  1
  Se  Se9  1  0.16471636  0.37431753  0.48485726  1
  Se  Se10  1  0.66467535  0.20380819  0.16182119  1
