# generated using pymatgen
data_CdAu3
_symmetry_space_group_name_H-M   'P 1'
_cell_length_a   4.21926928
_cell_length_b   4.19299173
_cell_length_c   4.22019577
_cell_angle_alpha   90.02272034
_cell_angle_beta   89.95040894
_cell_angle_gamma   90.08389282
_symmetry_Int_Tables_number   1
_chemical_formula_structural   CdAu3
_chemical_formula_sum   'Cd1 Au3'
_cell_volume   74.66089385
_cell_formula_units_Z   1
loop_
 _symmetry_equiv_pos_site_id
 _symmetry_equiv_pos_as_xyz
  1  'x, y, z'
loop_
 _atom_site_type_symbol
 _atom_site_label
 _atom_site_symmetry_multiplicity
 _atom_site_fract_x
 _atom_site_fract_y
 _atom_site_fract_z
 _atom_site_occupancy
  Cd  Cd0  1  0.01542946  0.45189968  0.53816336  1
  Au  Au1  1  0.01495195  0.95221210  0.03802817  1
  Au  Au2  1  0.51593941  0.95216501  0.53849429  1
  Au  Au3  1  0.51515859  0.45245287  0.03807664  1
