# generated using pymatgen
data_CdCu2SnSe4
_symmetry_space_group_name_H-M   'P 1'
_cell_length_a   5.86534739
_cell_length_b   5.85955381
_cell_length_c   7.13644552
_cell_angle_alpha   114.37435913
_cell_angle_beta   114.44319153
_cell_angle_gamma   89.98023987
_symmetry_Int_Tables_number   1
_chemical_formula_structural   CdCu2SnSe4
_chemical_formula_sum   'Cd1 Cu2 Sn1 Se4'
_cell_volume   199.04131849
_cell_formula_units_Z   1
loop_
 _symmetry_equiv_pos_site_id
 _symmetry_equiv_pos_as_xyz
  1  'x, y, z'
loop_
 _atom_site_type_symbol
 _atom_site_label
 _atom_site_symmetry_multiplicity
 _atom_site_fract_x
 _atom_site_fract_y
 _atom_site_fract_z
 _atom_site_occupancy
  Cd  Cd0  1  0.21487924  0.64912361  0.17472762  1
  Cu  Cu1  1  0.46433753  0.39981684  0.67470253  1
  Cu  Cu2  1  0.96403861  0.89997619  0.67448324  1
  Sn  Sn3  1  0.71476817  0.14934744  0.17492668  1
  Se  Se4  1  0.32967925  0.25422421  0.89144707  1
  Se  Se5  1  0.82062185  0.76281011  0.89227128  1
  Se  Se6  1  0.10196233  0.53304446  0.45659763  1
  Se  Se7  1  0.61098540  0.04583634  0.45693409  1
