# generated using pymatgen
data_CdGa(AgSe2)2
_symmetry_space_group_name_H-M   'P 1'
_cell_length_a   6.28492928
_cell_length_b   6.30109596
_cell_length_c   10.50399590
_cell_angle_alpha   89.95855713
_cell_angle_beta   89.91702271
_cell_angle_gamma   89.73547363
_symmetry_Int_Tables_number   1
_chemical_formula_structural   CdGa(AgSe2)2
_chemical_formula_sum   'Cd2 Ga2 Ag4 Se8'
_cell_volume   415.97366489
_cell_formula_units_Z   2
loop_
 _symmetry_equiv_pos_site_id
 _symmetry_equiv_pos_as_xyz
  1  'x, y, z'
loop_
 _atom_site_type_symbol
 _atom_site_label
 _atom_site_symmetry_multiplicity
 _atom_site_fract_x
 _atom_site_fract_y
 _atom_site_fract_z
 _atom_site_occupancy
  Cd  Cd0  1  0.42503819  0.87244076  0.92401516  1
  Cd  Cd1  1  0.92480391  0.37277707  0.92297542  1
  Ga  Ga2  1  0.92482615  0.87237763  0.17514601  1
  Ga  Ga3  1  0.42524299  0.37247363  0.67051780  1
  Ag  Ag4  1  0.92508316  0.87241352  0.67138678  1
  Ag  Ag5  1  0.42526069  0.37247166  0.17537691  1
  Ag  Ag6  1  0.92534930  0.37354308  0.42324871  1
  Ag  Ag7  1  0.42553982  0.87316811  0.42356226  1
  Se  Se8  1  0.15464865  0.63786829  0.05487031  1
  Se  Se9  1  0.69214696  0.10488424  0.05511553  1
  Se  Se10  1  0.19178285  0.60433888  0.55297720  1
  Se  Se11  1  0.69219273  0.63975161  0.29284132  1
  Se  Se12  1  0.65240890  0.13826519  0.55372578  1
  Se  Se13  1  0.15444428  0.10334491  0.29229218  1
  Se  Se14  1  0.19231094  0.14006178  0.79119849  1
  Se  Se15  1  0.65295553  0.60233289  0.79015380  1
