# generated using pymatgen
data_CdI2
_symmetry_space_group_name_H-M   'P 1'
_cell_length_a   4.43914890
_cell_length_b   4.42880583
_cell_length_c   21.54480934
_cell_angle_alpha   84.11265564
_cell_angle_beta   84.33711243
_cell_angle_gamma   59.56700897
_symmetry_Int_Tables_number   1
_chemical_formula_structural   CdI2
_chemical_formula_sum   'Cd3 I6'
_cell_volume   362.74895113
_cell_formula_units_Z   3
loop_
 _symmetry_equiv_pos_site_id
 _symmetry_equiv_pos_as_xyz
  1  'x, y, z'
loop_
 _atom_site_type_symbol
 _atom_site_label
 _atom_site_symmetry_multiplicity
 _atom_site_fract_x
 _atom_site_fract_y
 _atom_site_fract_z
 _atom_site_occupancy
  Cd  Cd0  1  0.98942143  0.40009996  0.09896091  1
  Cd  Cd1  1  0.54858428  0.96289408  0.42133981  1
  Cd  Cd2  1  0.77306038  0.18939038  0.72179216  1
  I  I3  1  0.46662530  0.87797177  0.66787112  1
  I  I4  1  0.73565865  0.14837259  0.85116065  1
  I  I5  1  0.18952811  0.60264647  0.49849966  1
  I  I6  1  0.63012552  0.04243123  0.17759562  1
  I  I7  1  0.91059059  0.31983232  0.34737709  1
  I  I8  1  0.34941775  0.76013297  0.02324616  1
