# generated using pymatgen
data_CdPd2Au
_symmetry_space_group_name_H-M   'P 1'
_cell_length_a   4.60573101
_cell_length_b   4.61663580
_cell_length_c   4.63558102
_cell_angle_alpha   59.82519531
_cell_angle_beta   60.11581421
_cell_angle_gamma   59.89279938
_symmetry_Int_Tables_number   1
_chemical_formula_structural   CdPd2Au
_chemical_formula_sum   'Cd1 Pd2 Au1'
_cell_volume   69.60833133
_cell_formula_units_Z   1
loop_
 _symmetry_equiv_pos_site_id
 _symmetry_equiv_pos_as_xyz
  1  'x, y, z'
loop_
 _atom_site_type_symbol
 _atom_site_label
 _atom_site_symmetry_multiplicity
 _atom_site_fract_x
 _atom_site_fract_y
 _atom_site_fract_z
 _atom_site_occupancy
  Cd  Cd0  1  0.83531988  0.34643796  0.89650601  1
  Pd  Pd1  1  0.58504069  0.09661985  0.64607829  1
  Pd  Pd2  1  0.08528217  0.59667104  0.14607406  1
  Au  Au3  1  0.33517995  0.84676218  0.39591503  1
