# generated using pymatgen
data_CdSiP2
_symmetry_space_group_name_H-M   'P 1'
_cell_length_a   5.71502829
_cell_length_b   5.69719982
_cell_length_c   6.65342808
_cell_angle_alpha   115.37847137
_cell_angle_beta   115.50835419
_cell_angle_gamma   90.13103485
_symmetry_Int_Tables_number   1
_chemical_formula_structural   CdSiP2
_chemical_formula_sum   'Cd2 Si2 P4'
_cell_volume   171.94781650
_cell_formula_units_Z   2
loop_
 _symmetry_equiv_pos_site_id
 _symmetry_equiv_pos_as_xyz
  1  'x, y, z'
loop_
 _atom_site_type_symbol
 _atom_site_label
 _atom_site_symmetry_multiplicity
 _atom_site_fract_x
 _atom_site_fract_y
 _atom_site_fract_z
 _atom_site_occupancy
  Cd  Cd0  1  0.60076088  0.36007816  0.90802497  1
  Cd  Cd1  1  0.35046241  0.61023301  0.40790498  1
  Si  Si2  1  0.85020500  0.11050805  0.40811890  1
  Si  Si3  1  0.10040572  0.86136734  0.90802598  1
  P  P4  1  0.97674829  0.78115565  0.15694894  1
  P  P5  1  0.47551736  0.18631490  0.15821777  1
  P  P6  1  0.17859377  0.48477224  0.65755206  1
  P  P7  1  0.76944411  0.98461509  0.65835667  1
