# generated using pymatgen
data_Ce(GeRh)2
_symmetry_space_group_name_H-M   'P 1'
_cell_length_a   4.19865608
_cell_length_b   4.17208672
_cell_length_c   6.03201771
_cell_angle_alpha   110.14101410
_cell_angle_beta   110.07928467
_cell_angle_gamma   90.12493134
_symmetry_Int_Tables_number   1
_chemical_formula_structural   Ce(GeRh)2
_chemical_formula_sum   'Ce1 Ge2 Rh2'
_cell_volume   92.30001287
_cell_formula_units_Z   1
loop_
 _symmetry_equiv_pos_site_id
 _symmetry_equiv_pos_as_xyz
  1  'x, y, z'
loop_
 _atom_site_type_symbol
 _atom_site_label
 _atom_site_symmetry_multiplicity
 _atom_site_fract_x
 _atom_site_fract_y
 _atom_site_fract_z
 _atom_site_occupancy
  Ce  Ce0  1  0.06331646  0.14515288  0.62333417  1
  Ge  Ge1  1  0.68724632  0.76914442  0.87065744  1
  Ge  Ge2  1  0.44154015  0.52329445  0.38073868  1
  Rh  Rh3  1  0.81381476  0.39540341  0.12264922  1
  Rh  Rh4  1  0.31321019  0.89519846  0.12325446  1
