# generated using pymatgen
data_Ce2AgHg
_symmetry_space_group_name_H-M   'P 1'
_cell_length_a   5.36808491
_cell_length_b   5.35893345
_cell_length_c   5.34809971
_cell_angle_alpha   59.86028290
_cell_angle_beta   59.82294464
_cell_angle_gamma   59.89247894
_symmetry_Int_Tables_number   1
_chemical_formula_structural   Ce2AgHg
_chemical_formula_sum   'Ce2 Ag1 Hg1'
_cell_volume   108.43908207
_cell_formula_units_Z   1
loop_
 _symmetry_equiv_pos_site_id
 _symmetry_equiv_pos_as_xyz
  1  'x, y, z'
loop_
 _atom_site_type_symbol
 _atom_site_label
 _atom_site_symmetry_multiplicity
 _atom_site_fract_x
 _atom_site_fract_y
 _atom_site_fract_z
 _atom_site_occupancy
  Ce  Ce0  1  0.86012012  0.72212875  0.00345004  1
  Ce  Ce1  1  0.36022666  0.22186953  0.50365686  1
  Ag  Ag2  1  0.61052459  0.47165176  0.75370932  1
  Hg  Hg3  1  0.11034883  0.97187185  0.25411168  1
