# generated using pymatgen
data_Ce2Ge3Rh
_symmetry_space_group_name_H-M   'P 1'
_cell_length_a   4.15214777
_cell_length_b   4.24244690
_cell_length_c   8.09260368
_cell_angle_alpha   105.34893799
_cell_angle_beta   104.85054016
_cell_angle_gamma   89.99280548
_symmetry_Int_Tables_number   1
_chemical_formula_structural   Ce2Ge3Rh
_chemical_formula_sum   'Ce2 Ge3 Rh1'
_cell_volume   132.52585860
_cell_formula_units_Z   1
loop_
 _symmetry_equiv_pos_site_id
 _symmetry_equiv_pos_as_xyz
  1  'x, y, z'
loop_
 _atom_site_type_symbol
 _atom_site_label
 _atom_site_symmetry_multiplicity
 _atom_site_fract_x
 _atom_site_fract_y
 _atom_site_fract_z
 _atom_site_occupancy
  Ce  Ce0  1  0.39279285  0.43010932  0.53642410  1
  Ce  Ce1  1  0.63819432  0.17457335  0.02750769  1
  Ge  Ge2  1  0.05436166  0.59368980  0.86236519  1
  Ge  Ge3  1  0.22199349  0.75944340  0.19576226  1
  Ge  Ge4  1  0.81441128  0.85068953  0.37843400  1
  Rh  Rh5  1  0.97432554  0.01176346  0.70101166  1
