# generated using pymatgen
data_Ce2Mg
_symmetry_space_group_name_H-M   'P 1'
_cell_length_a   3.25508237
_cell_length_b   6.46217442
_cell_length_c   8.03845406
_cell_angle_alpha   107.03952789
_cell_angle_beta   90.20098114
_cell_angle_gamma   104.21899414
_symmetry_Int_Tables_number   1
_chemical_formula_structural   Ce2Mg
_chemical_formula_sum   'Ce4 Mg2'
_cell_volume   156.19223854
_cell_formula_units_Z   2
loop_
 _symmetry_equiv_pos_site_id
 _symmetry_equiv_pos_as_xyz
  1  'x, y, z'
loop_
 _atom_site_type_symbol
 _atom_site_label
 _atom_site_symmetry_multiplicity
 _atom_site_fract_x
 _atom_site_fract_y
 _atom_site_fract_z
 _atom_site_occupancy
  Ce  Ce0  1  0.37703574  0.71376264  0.32935488  1
  Ce  Ce1  1  0.41400862  0.79291332  0.91417044  1
  Ce  Ce2  1  0.77306575  0.51277471  0.56605768  1
  Ce  Ce3  1  0.08086728  0.12022011  0.26109517  1
  Mg  Mg4  1  0.70174313  0.36601821  0.98277110  1
  Mg  Mg5  1  0.05868073  0.08840460  0.67000288  1
