# generated using pymatgen
data_Ce3Ga
_symmetry_space_group_name_H-M   'P 1'
_cell_length_a   5.35288572
_cell_length_b   6.70492029
_cell_length_c   6.67440462
_cell_angle_alpha   120.14302826
_cell_angle_beta   90.11148834
_cell_angle_gamma   89.99729156
_symmetry_Int_Tables_number   1
_chemical_formula_structural   Ce3Ga
_chemical_formula_sum   'Ce6 Ga2'
_cell_volume   207.15525231
_cell_formula_units_Z   2
loop_
 _symmetry_equiv_pos_site_id
 _symmetry_equiv_pos_as_xyz
  1  'x, y, z'
loop_
 _atom_site_type_symbol
 _atom_site_label
 _atom_site_symmetry_multiplicity
 _atom_site_fract_x
 _atom_site_fract_y
 _atom_site_fract_z
 _atom_site_occupancy
  Ce  Ce0  1  0.08184139  0.38023949  0.21691833  1
  Ce  Ce1  1  0.08180552  0.83771724  0.67853171  1
  Ce  Ce2  1  0.58137178  0.01613594  0.04331225  1
  Ce  Ce3  1  0.08085701  0.37777245  0.67901754  1
  Ce  Ce4  1  0.58111024  0.55443066  0.03999716  1
  Ce  Ce5  1  0.58137208  0.01664468  0.49935520  1
  Ga  Ga6  1  0.08110800  0.86435074  0.19443600  1
  Ga  Ga7  1  0.58089542  0.52961433  0.52561808  1
