# generated using pymatgen
data_Ce3SiPt5
_symmetry_space_group_name_H-M   'P 1'
_cell_length_a   6.59037256
_cell_length_b   8.31662750
_cell_length_c   8.35661983
_cell_angle_alpha   111.74319458
_cell_angle_beta   104.49618530
_cell_angle_gamma   107.23936462
_symmetry_Int_Tables_number   1
_chemical_formula_structural   Ce3SiPt5
_chemical_formula_sum   'Ce6 Si2 Pt10'
_cell_volume   371.34285640
_cell_formula_units_Z   2
loop_
 _symmetry_equiv_pos_site_id
 _symmetry_equiv_pos_as_xyz
  1  'x, y, z'
loop_
 _atom_site_type_symbol
 _atom_site_label
 _atom_site_symmetry_multiplicity
 _atom_site_fract_x
 _atom_site_fract_y
 _atom_site_fract_z
 _atom_site_occupancy
  Ce  Ce0  1  0.79939657  0.26280662  0.10997009  1
  Ce  Ce1  1  0.08658217  0.49515808  0.91409594  1
  Ce  Ce2  1  0.22514595  0.11611761  0.00092450  1
  Ce  Ce3  1  0.65505630  0.96009189  0.38507167  1
  Ce  Ce4  1  0.46924365  0.48321316  0.67235196  1
  Ce  Ce5  1  0.23977359  0.82974064  0.57734972  1
  Si  Si6  1  0.72310632  0.59593648  0.42670494  1
  Si  Si7  1  0.82502675  0.81364387  0.05658888  1
  Pt  Pt8  1  0.95535749  0.71503490  0.78198636  1
  Pt  Pt9  1  0.60783011  0.21442956  0.73176175  1
  Pt  Pt10  1  0.56852907  0.53414750  0.07399218  1
  Pt  Pt11  1  0.45720041  0.84779209  0.95919144  1
  Pt  Pt12  1  0.30267578  0.51838261  0.30170408  1
  Pt  Pt13  1  0.10595365  0.15632825  0.64850467  1
  Pt  Pt14  1  0.18082745  0.86162913  0.22234258  1
  Pt  Pt15  1  0.72717696  0.90845853  0.73036915  1
  Pt  Pt16  1  0.51303256  0.23581816  0.33239251  1
  Pt  Pt17  1  0.98292816  0.40536994  0.49354768  1
