# generated using pymatgen
data_Ce5Bi3
_symmetry_space_group_name_H-M   'P 1'
_cell_length_a   8.64781761
_cell_length_b   8.63785934
_cell_length_c   8.63285923
_cell_angle_alpha   109.16164398
_cell_angle_beta   109.27010345
_cell_angle_gamma   109.79726410
_symmetry_Int_Tables_number   1
_chemical_formula_structural   Ce5Bi3
_chemical_formula_sum   'Ce10 Bi6'
_cell_volume   497.53045908
_cell_formula_units_Z   2
loop_
 _symmetry_equiv_pos_site_id
 _symmetry_equiv_pos_as_xyz
  1  'x, y, z'
loop_
 _atom_site_type_symbol
 _atom_site_label
 _atom_site_symmetry_multiplicity
 _atom_site_fract_x
 _atom_site_fract_y
 _atom_site_fract_z
 _atom_site_occupancy
  Ce  Ce0  1  0.52786845  0.55235541  0.62912428  1
  Ce  Ce1  1  0.70889437  0.40429875  0.97026175  1
  Ce  Ce2  1  0.99630392  0.53841716  0.60934675  1
  Ce  Ce3  1  0.34668586  0.71262687  0.08661380  1
  Ce  Ce4  1  0.10152747  0.90471232  0.62922037  1
  Ce  Ce5  1  0.35633942  0.23532629  0.10790946  1
  Ce  Ce6  1  0.82726455  0.06403059  0.25268498  1
  Ce  Ce7  1  0.20938985  0.06941243  0.36918008  1
  Ce  Ce8  1  0.85006142  0.07018890  0.77756602  1
  Ce  Ce9  1  0.43207660  0.79813105  0.48079720  1
  Bi  Bi10  1  0.22478297  0.31201920  0.73842615  1
  Bi  Bi11  1  0.60353774  0.18350045  0.48300987  1
  Bi  Bi12  1  0.71638876  0.68351823  0.35786214  1
  Bi  Bi13  1  0.97555226  0.80909771  0.97165346  1
  Bi  Bi14  1  0.10336241  0.43035442  0.24115592  1
  Bi  Bi15  1  0.47547331  0.93056345  0.86487061  1
