# generated using pymatgen
data_Ce5Sb3
_symmetry_space_group_name_H-M   'P 1'
_cell_length_a   8.47716999
_cell_length_b   8.49208641
_cell_length_c   8.48614693
_cell_angle_alpha   109.38532257
_cell_angle_beta   109.23369598
_cell_angle_gamma   110.18828583
_symmetry_Int_Tables_number   1
_chemical_formula_structural   Ce5Sb3
_chemical_formula_sum   'Ce10 Sb6'
_cell_volume   467.95049591
_cell_formula_units_Z   2
loop_
 _symmetry_equiv_pos_site_id
 _symmetry_equiv_pos_as_xyz
  1  'x, y, z'
loop_
 _atom_site_type_symbol
 _atom_site_label
 _atom_site_symmetry_multiplicity
 _atom_site_fract_x
 _atom_site_fract_y
 _atom_site_fract_z
 _atom_site_occupancy
  Ce  Ce0  1  0.05797511  0.48520765  0.98598194  1
  Ce  Ce1  1  0.55919325  0.99382174  0.32309702  1
  Ce  Ce2  1  0.85897809  0.60696095  0.64455986  1
  Ce  Ce3  1  0.86122239  0.10272264  0.98710537  1
  Ce  Ce4  1  0.19330183  0.27088401  0.46654868  1
  Ce  Ce5  1  0.20320402  0.80772078  0.48480779  1
  Ce  Ce6  1  0.72689861  0.65199327  0.14439987  1
  Ce  Ce7  1  0.59689361  0.81427735  0.64260775  1
  Ce  Ce8  1  0.36397105  0.12235738  0.98632514  1
  Ce  Ce9  1  0.35958964  0.42019323  0.83287603  1
  Sb  Sb10  1  0.36008015  0.74390072  0.86337531  1
  Sb  Sb11  1  0.60423535  0.24462470  0.73456860  1
  Sb  Sb12  1  0.85245562  0.37962565  0.28764531  1
  Sb  Sb13  1  0.40700322  0.50570756  0.28815937  1
  Sb  Sb14  1  0.10328652  0.88436490  0.11441648  1
  Sb  Sb15  1  0.97604614  0.01329473  0.61732960  1
