# generated using pymatgen
data_CeAlSi2
_symmetry_space_group_name_H-M   'P 1'
_cell_length_a   4.12365866
_cell_length_b   4.15580606
_cell_length_c   9.97913742
_cell_angle_alpha   101.99965668
_cell_angle_beta   101.97236633
_cell_angle_gamma   90.06781769
_symmetry_Int_Tables_number   1
_chemical_formula_structural   CeAlSi2
_chemical_formula_sum   'Ce2 Al2 Si4'
_cell_volume   163.46268227
_cell_formula_units_Z   2
loop_
 _symmetry_equiv_pos_site_id
 _symmetry_equiv_pos_as_xyz
  1  'x, y, z'
loop_
 _atom_site_type_symbol
 _atom_site_label
 _atom_site_symmetry_multiplicity
 _atom_site_fract_x
 _atom_site_fract_y
 _atom_site_fract_z
 _atom_site_occupancy
  Ce  Ce0  1  0.69608277  0.74197781  0.68615460  1
  Ce  Ce1  1  0.94540137  0.98957866  0.18409079  1
  Al  Al2  1  0.07172900  0.61800885  0.44003689  1
  Al  Al3  1  0.37671104  0.41869828  0.04532538  1
  Si  Si4  1  0.30665854  0.85242611  0.91101503  1
  Si  Si5  1  0.80447948  0.35166520  0.91063434  1
  Si  Si6  1  0.14164239  0.18410115  0.57709348  1
  Si  Si7  1  0.50669861  0.55070758  0.30515119  1
