# generated using pymatgen
data_CeAl4Ge2Au
_symmetry_space_group_name_H-M   'P 1'
_cell_length_a   4.35967684
_cell_length_b   4.35456228
_cell_length_c   8.78865242
_cell_angle_alpha   104.19660187
_cell_angle_beta   104.05653381
_cell_angle_gamma   90.16358185
_symmetry_Int_Tables_number   1
_chemical_formula_structural   CeAl4Ge2Au
_chemical_formula_sum   'Ce1 Al4 Ge2 Au1'
_cell_volume   156.56302635
_cell_formula_units_Z   1
loop_
 _symmetry_equiv_pos_site_id
 _symmetry_equiv_pos_as_xyz
  1  'x, y, z'
loop_
 _atom_site_type_symbol
 _atom_site_label
 _atom_site_symmetry_multiplicity
 _atom_site_fract_x
 _atom_site_fract_y
 _atom_site_fract_z
 _atom_site_occupancy
  Ce  Ce0  1  0.97011352  0.32472140  0.14117320  1
  Al  Al1  1  0.71221149  0.06869788  0.62334794  1
  Al  Al2  1  0.39133236  0.74865717  0.98355925  1
  Al  Al3  1  0.11185000  0.96915984  0.43089008  1
  Al  Al4  1  0.20331956  0.55812478  0.61253357  1
  Ge  Ge5  1  0.80924189  0.66345537  0.82274240  1
  Ge  Ge6  1  0.53608197  0.89037943  0.27517232  1
  Au  Au7  1  0.30376422  0.15980011  0.80489004  1
