# generated using pymatgen
data_CeB2Pd2C
_symmetry_space_group_name_H-M   'P 1'
_cell_length_a   3.87129378
_cell_length_b   3.86034322
_cell_length_c   5.94870663
_cell_angle_alpha   108.96518707
_cell_angle_beta   109.34922791
_cell_angle_gamma   90.13250732
_symmetry_Int_Tables_number   1
_chemical_formula_structural   CeB2Pd2C
_chemical_formula_sum   'Ce1 B2 Pd2 C1'
_cell_volume   78.72091946
_cell_formula_units_Z   1
loop_
 _symmetry_equiv_pos_site_id
 _symmetry_equiv_pos_as_xyz
  1  'x, y, z'
loop_
 _atom_site_type_symbol
 _atom_site_label
 _atom_site_symmetry_multiplicity
 _atom_site_fract_x
 _atom_site_fract_y
 _atom_site_fract_z
 _atom_site_occupancy
  Ce  Ce0  1  0.37008271  0.31680998  0.66125900  1
  B  B1  1  0.72970784  0.67667359  0.38344902  1
  B  B2  1  0.00529051  0.95198286  0.93360198  1
  Pd  Pd3  1  0.61932778  0.06617031  0.16171053  1
  Pd  Pd4  1  0.11966366  0.56617165  0.16182661  1
  C  C5  1  0.87039763  0.81586778  0.66138744  1
