# generated using pymatgen
data_CeB2Ir2C
_symmetry_space_group_name_H-M   'P 1'
_cell_length_a   3.85142779
_cell_length_b   3.83003831
_cell_length_c   5.98593092
_cell_angle_alpha   108.74294281
_cell_angle_beta   108.81353760
_cell_angle_gamma   90.27655792
_symmetry_Int_Tables_number   1
_chemical_formula_structural   CeB2Ir2C
_chemical_formula_sum   'Ce1 B2 Ir2 C1'
_cell_volume   78.56782835
_cell_formula_units_Z   1
loop_
 _symmetry_equiv_pos_site_id
 _symmetry_equiv_pos_as_xyz
  1  'x, y, z'
loop_
 _atom_site_type_symbol
 _atom_site_label
 _atom_site_symmetry_multiplicity
 _atom_site_fract_x
 _atom_site_fract_y
 _atom_site_fract_z
 _atom_site_occupancy
  Ce  Ce0  1  0.97308987  0.67973787  0.99683577  1
  B  B1  1  0.33102039  0.03730607  0.71091646  1
  B  B2  1  0.61440134  0.32225814  0.28054243  1
  Ir  Ir3  1  0.22244285  0.42958772  0.49682328  1
  Ir  Ir4  1  0.72283053  0.93037230  0.49648261  1
  C  C5  1  0.47297058  0.17951527  0.99694645  1
