# generated using pymatgen
data_CeCdAu2
_symmetry_space_group_name_H-M   'P 1'
_cell_length_a   5.03473234
_cell_length_b   5.03167009
_cell_length_c   5.04179525
_cell_angle_alpha   60.01364517
_cell_angle_beta   60.13625717
_cell_angle_gamma   60.10424423
_symmetry_Int_Tables_number   1
_chemical_formula_structural   CeCdAu2
_chemical_formula_sum   'Ce1 Cd1 Au2'
_cell_volume   90.48791791
_cell_formula_units_Z   1
loop_
 _symmetry_equiv_pos_site_id
 _symmetry_equiv_pos_as_xyz
  1  'x, y, z'
loop_
 _atom_site_type_symbol
 _atom_site_label
 _atom_site_symmetry_multiplicity
 _atom_site_fract_x
 _atom_site_fract_y
 _atom_site_fract_z
 _atom_site_occupancy
  Ce  Ce0  1  0.63587683  0.16988963  0.54928052  1
  Cd  Cd1  1  0.13589457  0.67032886  0.04997035  1
  Au  Au2  1  0.88652271  0.42015040  0.79919183  1
  Au  Au3  1  0.38627887  0.91992670  0.29978308  1
