# generated using pymatgen
data_CeCo2SiB
_symmetry_space_group_name_H-M   'P 1'
_cell_length_a   3.74169970
_cell_length_b   3.73281312
_cell_length_c   5.43491125
_cell_angle_alpha   110.33355713
_cell_angle_beta   110.48936462
_cell_angle_gamma   90.24371338
_symmetry_Int_Tables_number   1
_chemical_formula_structural   CeCo2SiB
_chemical_formula_sum   'Ce1 Co2 Si1 B1'
_cell_volume   65.98815872
_cell_formula_units_Z   1
loop_
 _symmetry_equiv_pos_site_id
 _symmetry_equiv_pos_as_xyz
  1  'x, y, z'
loop_
 _atom_site_type_symbol
 _atom_site_label
 _atom_site_symmetry_multiplicity
 _atom_site_fract_x
 _atom_site_fract_y
 _atom_site_fract_z
 _atom_site_occupancy
  Ce  Ce0  1  0.96395004  0.13098106  0.41793111  1
  Co  Co1  1  0.23022781  0.89065909  0.94840682  1
  Co  Co2  1  0.72924691  0.39064890  0.94868773  1
  Si  Si3  1  0.59879071  0.76036865  0.68551594  1
  B  B4  1  0.33231339  0.49603441  0.15848482  1
