# generated using pymatgen
data_CeFeSi2
_symmetry_space_group_name_H-M   'P 1'
_cell_length_a   4.06209373
_cell_length_b   4.12521267
_cell_length_c   8.46400356
_cell_angle_alpha   103.94184875
_cell_angle_beta   89.88901520
_cell_angle_gamma   89.95434570
_symmetry_Int_Tables_number   1
_chemical_formula_structural   CeFeSi2
_chemical_formula_sum   'Ce2 Fe2 Si4'
_cell_volume   137.65269476
_cell_formula_units_Z   2
loop_
 _symmetry_equiv_pos_site_id
 _symmetry_equiv_pos_as_xyz
  1  'x, y, z'
loop_
 _atom_site_type_symbol
 _atom_site_label
 _atom_site_symmetry_multiplicity
 _atom_site_fract_x
 _atom_site_fract_y
 _atom_site_fract_z
 _atom_site_occupancy
  Ce  Ce0  1  0.81126690  0.79155356  0.86287719  1
  Ce  Ce1  1  0.31116292  0.57356542  0.42903036  1
  Fe  Fe2  1  0.81131852  0.43312520  0.14509600  1
  Fe  Fe3  1  0.31116372  0.93348789  0.14557005  1
  Si  Si4  1  0.81106639  0.99227083  0.26614547  1
  Si  Si5  1  0.81117702  0.14591922  0.57268000  1
  Si  Si6  1  0.31045279  0.36914289  0.01780460  1
  Si  Si7  1  0.31084386  0.21743090  0.71928757  1
