# generated using pymatgen
data_CeGa3Pt
_symmetry_space_group_name_H-M   'P 1'
_cell_length_a   4.21769285
_cell_length_b   4.22038078
_cell_length_c   6.13407660
_cell_angle_alpha   110.35726166
_cell_angle_beta   110.50605774
_cell_angle_gamma   90.10910797
_symmetry_Int_Tables_number   1
_chemical_formula_structural   CeGa3Pt
_chemical_formula_sum   'Ce1 Ga3 Pt1'
_cell_volume   94.92483501
_cell_formula_units_Z   1
loop_
 _symmetry_equiv_pos_site_id
 _symmetry_equiv_pos_as_xyz
  1  'x, y, z'
loop_
 _atom_site_type_symbol
 _atom_site_label
 _atom_site_symmetry_multiplicity
 _atom_site_fract_x
 _atom_site_fract_y
 _atom_site_fract_z
 _atom_site_occupancy
  Ce  Ce0  1  0.69781494  0.34485197  0.20227645  1
  Ga  Ga1  1  0.08145098  0.72784466  0.96749341  1
  Ga  Ga2  1  0.31422484  0.96071738  0.43384629  1
  Ga  Ga3  1  0.94622141  0.09490021  0.70168573  1
  Pt  Pt4  1  0.44748214  0.59577101  0.70154387  1
