# generated using pymatgen
data_CeOF
_symmetry_space_group_name_H-M   'P 1'
_cell_length_a   3.98622608
_cell_length_b   4.01533985
_cell_length_c   6.16490221
_cell_angle_alpha   89.93774414
_cell_angle_beta   89.91930389
_cell_angle_gamma   120.09535980
_symmetry_Int_Tables_number   1
_chemical_formula_structural   CeOF
_chemical_formula_sum   'Ce2 O2 F2'
_cell_volume   85.37320317
_cell_formula_units_Z   2
loop_
 _symmetry_equiv_pos_site_id
 _symmetry_equiv_pos_as_xyz
  1  'x, y, z'
loop_
 _atom_site_type_symbol
 _atom_site_label
 _atom_site_symmetry_multiplicity
 _atom_site_fract_x
 _atom_site_fract_y
 _atom_site_fract_z
 _atom_site_occupancy
  Ce  Ce0  1  0.52665395  0.24467979  0.87531096  1
  Ce  Ce1  1  0.85996127  0.91139776  0.36832553  1
  O  O2  1  0.85908628  0.91148281  0.98457372  1
  O  O3  1  0.19294401  0.57822543  0.67995572  1
  F  F4  1  0.19317406  0.57797229  0.17919375  1
  F  F5  1  0.52602255  0.24478021  0.46850410  1
