# generated using pymatgen
data_CePRuO
_symmetry_space_group_name_H-M   'P 1'
_cell_length_a   4.02615166
_cell_length_b   3.99605083
_cell_length_c   7.78178930
_cell_angle_alpha   89.85925293
_cell_angle_beta   89.93838501
_cell_angle_gamma   90.07664490
_symmetry_Int_Tables_number   1
_chemical_formula_structural   CePRuO
_chemical_formula_sum   'Ce2 P2 Ru2 O2'
_cell_volume   125.19836301
_cell_formula_units_Z   2
loop_
 _symmetry_equiv_pos_site_id
 _symmetry_equiv_pos_as_xyz
  1  'x, y, z'
loop_
 _atom_site_type_symbol
 _atom_site_label
 _atom_site_symmetry_multiplicity
 _atom_site_fract_x
 _atom_site_fract_y
 _atom_site_fract_z
 _atom_site_occupancy
  Ce  Ce0  1  0.21778703  0.58907020  0.10951471  1
  Ce  Ce1  1  0.71815169  0.08904098  0.79396462  1
  P  P2  1  0.71806604  0.08859728  0.29845986  1
  P  P3  1  0.21803276  0.58919263  0.60280550  1
  Ru  Ru4  1  0.21822052  0.08864378  0.45066798  1
  Ru  Ru5  1  0.71788627  0.58954060  0.45097795  1
  O  O6  1  0.71741289  0.58886373  0.95121408  1
  O  O7  1  0.21832766  0.08941719  0.95157021  1
