# generated using pymatgen
data_CeY(GaPd2)2
_symmetry_space_group_name_H-M   'P 1'
_cell_length_a   6.22709131
_cell_length_b   6.21552515
_cell_length_c   7.45081472
_cell_angle_alpha   90.07328033
_cell_angle_beta   89.98029327
_cell_angle_gamma   90.08053589
_symmetry_Int_Tables_number   1
_chemical_formula_structural   CeY(GaPd2)2
_chemical_formula_sum   'Ce2 Y2 Ga4 Pd8'
_cell_volume   288.38058383
_cell_formula_units_Z   2
loop_
 _symmetry_equiv_pos_site_id
 _symmetry_equiv_pos_as_xyz
  1  'x, y, z'
loop_
 _atom_site_type_symbol
 _atom_site_label
 _atom_site_symmetry_multiplicity
 _atom_site_fract_x
 _atom_site_fract_y
 _atom_site_fract_z
 _atom_site_occupancy
  Ce  Ce0  1  0.82719696  0.35400975  0.47994870  1
  Ce  Ce1  1  0.32744616  0.85371870  0.48082510  1
  Y  Y2  1  0.32713085  0.35367054  0.98026019  1
  Y  Y3  1  0.82727331  0.85399562  0.98046964  1
  Ga  Ga4  1  0.82703215  0.85333300  0.48126474  1
  Ga  Ga5  1  0.32711187  0.85301745  0.98167968  1
  Ga  Ga6  1  0.32705632  0.35316974  0.48090655  1
  Ga  Ga7  1  0.82730991  0.35350731  0.98178780  1
  Pd  Pd8  1  0.07504456  0.60449880  0.73205495  1
  Pd  Pd9  1  0.07625020  0.10570407  0.73141474  1
  Pd  Pd10  1  0.57643902  0.60522294  0.73139125  1
  Pd  Pd11  1  0.57646275  0.10458418  0.73133916  1
  Pd  Pd12  1  0.57693589  0.10420321  0.22924699  1
  Pd  Pd13  1  0.07599930  0.10374533  0.23031506  1
  Pd  Pd14  1  0.57649231  0.60347378  0.23030761  1
  Pd  Pd15  1  0.07617647  0.60431612  0.22978730  1
