# generated using pymatgen
data_CeYIn6
_symmetry_space_group_name_H-M   'P 1'
_cell_length_a   4.68145466
_cell_length_b   4.66576767
_cell_length_c   9.31774712
_cell_angle_alpha   89.92534637
_cell_angle_beta   89.91110992
_cell_angle_gamma   90.09773254
_symmetry_Int_Tables_number   1
_chemical_formula_structural   CeYIn6
_chemical_formula_sum   'Ce1 Y1 In6'
_cell_volume   203.52292039
_cell_formula_units_Z   1
loop_
 _symmetry_equiv_pos_site_id
 _symmetry_equiv_pos_as_xyz
  1  'x, y, z'
loop_
 _atom_site_type_symbol
 _atom_site_label
 _atom_site_symmetry_multiplicity
 _atom_site_fract_x
 _atom_site_fract_y
 _atom_site_fract_z
 _atom_site_occupancy
  Ce  Ce0  1  0.10406584  0.41753334  0.47604823  1
  Y  Y1  1  0.10408069  0.41777417  0.97561365  1
  In  In2  1  0.60443491  0.41796032  0.22520554  1
  In  In3  1  0.60394025  0.41800368  0.72791374  1
  In  In4  1  0.10386059  0.91804594  0.22393671  1
  In  In5  1  0.10413457  0.91784388  0.72809237  1
  In  In6  1  0.60385382  0.91778487  0.97601414  1
  In  In7  1  0.60375750  0.91800684  0.47595197  1
