# generated using pymatgen
data_CeZn3
_symmetry_space_group_name_H-M   'P 1'
_cell_length_a   4.48270082
_cell_length_b   6.29505205
_cell_length_c   6.30320168
_cell_angle_alpha   120.26889038
_cell_angle_beta   90.07514954
_cell_angle_gamma   90.13271332
_symmetry_Int_Tables_number   1
_chemical_formula_structural   CeZn3
_chemical_formula_sum   'Ce2 Zn6'
_cell_volume   153.61896825
_cell_formula_units_Z   2
loop_
 _symmetry_equiv_pos_site_id
 _symmetry_equiv_pos_as_xyz
  1  'x, y, z'
loop_
 _atom_site_type_symbol
 _atom_site_label
 _atom_site_symmetry_multiplicity
 _atom_site_fract_x
 _atom_site_fract_y
 _atom_site_fract_z
 _atom_site_occupancy
  Ce  Ce0  1  0.91310793  0.02383564  0.35173845  1
  Ce  Ce1  1  0.41315702  0.69255441  0.68497771  1
  Zn  Zn2  1  0.91302270  0.06434088  0.87112612  1
  Zn  Zn3  1  0.91264325  0.50301772  0.31230289  1
  Zn  Zn4  1  0.41252866  0.21146807  0.16563562  1
  Zn  Zn5  1  0.41303816  0.21212918  0.72553569  1
  Zn  Zn6  1  0.41275761  0.64922351  0.16583499  1
  Zn  Zn7  1  0.91202766  0.50393438  0.87099934  1
