# generated using pymatgen
data_Co(HO)2
_symmetry_space_group_name_H-M   'P 1'
_cell_length_a   3.05256367
_cell_length_b   6.66803694
_cell_length_c   9.47428703
_cell_angle_alpha   80.58984375
_cell_angle_beta   82.24566650
_cell_angle_gamma   77.05432129
_symmetry_Int_Tables_number   1
_chemical_formula_structural   Co(HO)2
_chemical_formula_sum   'Co4 H8 O8'
_cell_volume   184.44314513
_cell_formula_units_Z   4
loop_
 _symmetry_equiv_pos_site_id
 _symmetry_equiv_pos_as_xyz
  1  'x, y, z'
loop_
 _atom_site_type_symbol
 _atom_site_label
 _atom_site_symmetry_multiplicity
 _atom_site_fract_x
 _atom_site_fract_y
 _atom_site_fract_z
 _atom_site_occupancy
  Co  Co0  1  0.09978996  0.76736850  0.72079033  1
  Co  Co1  1  0.62329125  0.24767603  0.22181375  1
  Co  Co2  1  0.10422125  0.00598505  0.47519085  1
  Co  Co3  1  0.59645092  0.52893227  0.97115129  1
  H  H4  1  0.28040951  0.39102221  0.72693551  1
  H  H5  1  0.94738990  0.58460021  0.22793198  1
  H  H6  1  0.28225476  0.89031959  0.22269775  1
  H  H7  1  0.44559395  0.34077355  0.48881781  1
  H  H8  1  0.44599977  0.08401824  0.73477012  1
  H  H9  1  0.78144825  0.63892686  0.48264793  1
  H  H10  1  0.78319651  0.14032470  0.94460541  1
  H  H11  1  0.94568449  0.83898091  0.99636638  1
  O  O12  1  0.22358714  0.49236250  0.78413546  1
  O  O13  1  0.51258761  0.23018049  0.43473753  1
  O  O14  1  0.02044647  0.47782961  0.16773117  1
  O  O15  1  0.72440910  0.25538033  0.01748565  1
  O  O16  1  0.00670405  0.74406493  0.93794340  1
  O  O17  1  0.51004386  0.97614443  0.69249237  1
  O  O18  1  0.22468100  0.02101209  0.25803730  1
  O  O19  1  0.72240216  0.76362723  0.51733863  1
