# generated using pymatgen
data_Co(HO)2
_symmetry_space_group_name_H-M   'P 1'
_cell_length_a   5.23221588
_cell_length_b   5.29514885
_cell_length_c   6.40781450
_cell_angle_alpha   89.72465515
_cell_angle_beta   89.50552368
_cell_angle_gamma   78.81813049
_symmetry_Int_Tables_number   1
_chemical_formula_structural   Co(HO)2
_chemical_formula_sum   'Co4 H8 O8'
_cell_volume   174.15330232
_cell_formula_units_Z   4
loop_
 _symmetry_equiv_pos_site_id
 _symmetry_equiv_pos_as_xyz
  1  'x, y, z'
loop_
 _atom_site_type_symbol
 _atom_site_label
 _atom_site_symmetry_multiplicity
 _atom_site_fract_x
 _atom_site_fract_y
 _atom_site_fract_z
 _atom_site_occupancy
  Co  Co0  1  0.67091447  0.78115559  0.50167769  1
  Co  Co1  1  0.17075816  0.78089499  0.25179401  1
  Co  Co2  1  0.17051063  0.78152257  0.75224626  1
  Co  Co3  1  0.17046025  0.28366280  0.00141135  1
  H  H4  1  0.33130983  0.43565801  0.49881572  1
  H  H5  1  0.01461742  0.11176725  0.49912632  1
  H  H6  1  0.52224380  0.11373897  0.75345522  1
  H  H7  1  0.82704568  0.43795985  0.75365305  1
  H  H8  1  0.52060354  0.61225921  0.99918544  1
  H  H9  1  0.82425988  0.43623143  0.26258144  1
  H  H10  1  0.82447815  0.93575817  0.99904782  1
  H  H11  1  0.51997602  0.11184801  0.25477213  1
  O  O12  1  0.35468692  0.57779163  0.00021692  1
  O  O13  1  0.91772902  0.53734273  0.25042897  1
  O  O14  1  0.91677225  0.53522813  0.75000131  1
  O  O15  1  0.39074993  0.58332753  0.50030363  1
  O  O16  1  0.97214651  0.00078041  0.99944711  1
  O  O17  1  0.41969997  0.03157000  0.74955320  1
  O  O18  1  0.41977298  0.03102046  0.25020254  1
  O  O19  1  0.95112914  0.97419381  0.50005096  1
