# generated using pymatgen
data_Co3(Ni3S4)2
_symmetry_space_group_name_H-M   'P 1'
_cell_length_a   6.70845842
_cell_length_b   6.70725679
_cell_length_c   6.69897795
_cell_angle_alpha   59.87023163
_cell_angle_beta   59.89282990
_cell_angle_gamma   59.84501266
_symmetry_Int_Tables_number   1
_chemical_formula_structural   Co3(Ni3S4)2
_chemical_formula_sum   'Co3 Ni6 S8'
_cell_volume   212.50626016
_cell_formula_units_Z   1
loop_
 _symmetry_equiv_pos_site_id
 _symmetry_equiv_pos_as_xyz
  1  'x, y, z'
loop_
 _atom_site_type_symbol
 _atom_site_label
 _atom_site_symmetry_multiplicity
 _atom_site_fract_x
 _atom_site_fract_y
 _atom_site_fract_z
 _atom_site_occupancy
  Co  Co0  1  0.44287598  0.67467165  0.91492903  1
  Co  Co1  1  0.31077155  0.06270839  0.29319346  1
  Co  Co2  1  0.79770619  0.54005158  0.28739011  1
  Ni  Ni3  1  0.17906173  0.44358617  0.68915313  1
  Ni  Ni4  1  0.33134463  0.53999215  0.28972608  1
  Ni  Ni5  1  0.80800372  0.05981949  0.79652447  1
  Ni  Ni6  1  0.79748023  0.07333798  0.29199857  1
  Ni  Ni7  1  0.31056440  0.05672852  0.79677314  1
  Ni  Ni8  1  0.93232405  0.68503278  0.43193221  1
  S  S9  1  0.56601477  0.30509692  0.54093868  1
  S  S10  1  0.55641031  0.81015229  0.05075765  1
  S  S11  1  0.06429727  0.82685626  0.53626370  1
  S  S12  1  0.55623472  0.29414064  0.05529335  1
  S  S13  1  0.55545092  0.81798607  0.53440517  1
  S  S14  1  0.06145898  0.29386693  0.06720583  1
  S  S15  1  0.05387294  0.80777889  0.04664874  1
  S  S16  1  0.06325734  0.29976678  0.53762722  1
