# generated using pymatgen
data_CoAuO2
_symmetry_space_group_name_H-M   'P 1'
_cell_length_a   3.08883286
_cell_length_b   3.12259555
_cell_length_c   11.59901047
_cell_angle_alpha   89.81381226
_cell_angle_beta   89.75981903
_cell_angle_gamma   119.84517670
_symmetry_Int_Tables_number   1
_chemical_formula_structural   CoAuO2
_chemical_formula_sum   'Co2 Au2 O4'
_cell_volume   97.03426374
_cell_formula_units_Z   2
loop_
 _symmetry_equiv_pos_site_id
 _symmetry_equiv_pos_as_xyz
  1  'x, y, z'
loop_
 _atom_site_type_symbol
 _atom_site_label
 _atom_site_symmetry_multiplicity
 _atom_site_fract_x
 _atom_site_fract_y
 _atom_site_fract_z
 _atom_site_occupancy
  Co  Co0  1  0.34435982  0.55326569  0.91066116  1
  Co  Co1  1  0.34427965  0.55370986  0.44609392  1
  Au  Au2  1  0.01109578  0.88761646  0.67923665  1
  Au  Au3  1  0.01074829  0.88675272  0.17939693  1
  O  O4  1  0.01084267  0.88681525  0.99109107  1
  O  O5  1  0.67772186  0.22098240  0.54417807  1
  O  O6  1  0.01114036  0.88706559  0.36687049  1
  O  O7  1  0.67710066  0.22077477  0.80715203  1
