# generated using pymatgen
data_CoF3
_symmetry_space_group_name_H-M   'P 1'
_cell_length_a   5.02140665
_cell_length_b   5.02792931
_cell_length_c   5.00521803
_cell_angle_alpha   99.64019775
_cell_angle_beta   99.49472046
_cell_angle_gamma   119.84564209
_symmetry_Int_Tables_number   1
_chemical_formula_structural   CoF3
_chemical_formula_sum   'Co2 F6'
_cell_volume   103.40442500
_cell_formula_units_Z   2
loop_
 _symmetry_equiv_pos_site_id
 _symmetry_equiv_pos_as_xyz
  1  'x, y, z'
loop_
 _atom_site_type_symbol
 _atom_site_label
 _atom_site_symmetry_multiplicity
 _atom_site_fract_x
 _atom_site_fract_y
 _atom_site_fract_z
 _atom_site_occupancy
  Co  Co0  1  0.88065338  0.70703584  0.58811432  1
  Co  Co1  1  0.38074279  0.20444043  0.08871642  1
  F  F2  1  0.26036313  0.81297505  0.83721542  1
  F  F3  1  0.12854637  0.95087767  0.33697194  1
  F  F4  1  0.98723513  0.09389786  0.83831644  1
  F  F5  1  0.49709928  0.59146816  0.33843493  1
  F  F6  1  0.62635279  0.45497185  0.83843601  1
  F  F7  1  0.76978171  0.30841908  0.33960983  1
