# generated using pymatgen
data_CoNiTe4
_symmetry_space_group_name_H-M   'P 1'
_cell_length_a   3.90223885
_cell_length_b   5.47636652
_cell_length_c   6.40470171
_cell_angle_alpha   90.42736816
_cell_angle_beta   90.04087067
_cell_angle_gamma   90.11679077
_symmetry_Int_Tables_number   1
_chemical_formula_structural   CoNiTe4
_chemical_formula_sum   'Co1 Ni1 Te4'
_cell_volume   136.86492494
_cell_formula_units_Z   1
loop_
 _symmetry_equiv_pos_site_id
 _symmetry_equiv_pos_as_xyz
  1  'x, y, z'
loop_
 _atom_site_type_symbol
 _atom_site_label
 _atom_site_symmetry_multiplicity
 _atom_site_fract_x
 _atom_site_fract_y
 _atom_site_fract_z
 _atom_site_occupancy
  Co  Co0  1  0.63487512  0.33491105  0.02195044  1
  Ni  Ni1  1  0.13504702  0.83487242  0.52194262  1
  Te  Te2  1  0.63590193  0.10036360  0.38378367  1
  Te  Te3  1  0.63539708  0.56932974  0.66207445  1
  Te  Te4  1  0.13511960  0.59787309  0.16118369  1
  Te  Te5  1  0.13465711  0.07371163  0.88452113  1
