# generated using pymatgen
data_Cr2CoSe4
_symmetry_space_group_name_H-M   'P 1'
_cell_length_a   3.52386022
_cell_length_b   6.32100105
_cell_length_c   6.43560028
_cell_angle_alpha   106.16768646
_cell_angle_beta   105.95422363
_cell_angle_gamma   90.04927826
_symmetry_Int_Tables_number   1
_chemical_formula_structural   Cr2CoSe4
_chemical_formula_sum   'Cr2 Co1 Se4'
_cell_volume   131.91038575
_cell_formula_units_Z   1
loop_
 _symmetry_equiv_pos_site_id
 _symmetry_equiv_pos_as_xyz
  1  'x, y, z'
loop_
 _atom_site_type_symbol
 _atom_site_label
 _atom_site_symmetry_multiplicity
 _atom_site_fract_x
 _atom_site_fract_y
 _atom_site_fract_z
 _atom_site_occupancy
  Cr  Cr0  1  0.04645761  0.81181073  0.68534034  1
  Cr  Cr1  1  0.79591930  0.05733163  0.18338259  1
  Co  Co2  1  0.54566419  0.30347067  0.68776524  1
  Se  Se3  1  0.93657106  0.41179037  0.46540439  1
  Se  Se4  1  0.17606071  0.21372445  0.94457746  1
  Se  Se5  1  0.66522449  0.69400632  0.91782343  1
  Se  Se6  1  0.41767094  0.91356957  0.42715505  1
