# generated using pymatgen
data_Cr4InCuS8
_symmetry_space_group_name_H-M   'P 1'
_cell_length_a   7.01635885
_cell_length_b   7.01094103
_cell_length_c   7.31492758
_cell_angle_alpha   61.08401871
_cell_angle_beta   61.11463165
_cell_angle_gamma   59.99306107
_symmetry_Int_Tables_number   1
_chemical_formula_structural   Cr4InCuS8
_chemical_formula_sum   'Cr4 In1 Cu1 S8'
_cell_volume   258.57083275
_cell_formula_units_Z   1
loop_
 _symmetry_equiv_pos_site_id
 _symmetry_equiv_pos_as_xyz
  1  'x, y, z'
loop_
 _atom_site_type_symbol
 _atom_site_label
 _atom_site_symmetry_multiplicity
 _atom_site_fract_x
 _atom_site_fract_y
 _atom_site_fract_z
 _atom_site_occupancy
  Cr  Cr0  1  0.05101555  0.57864457  0.94260877  1
  Cr  Cr1  1  0.53478241  0.57637250  0.95661819  1
  Cr  Cr2  1  0.04002479  0.07326623  0.96053207  1
  Cr  Cr3  1  0.53465283  0.07362785  0.96138173  1
  In  In4  1  0.53583449  0.07257700  0.46202263  1
  Cu  Cu5  1  0.90648425  0.44845062  0.36500368  1
  S  S6  1  0.77603310  0.31028327  0.74714363  1
  S  S7  1  0.77739662  0.80917078  0.74694955  1
  S  S8  1  0.80181676  0.33958930  0.17010188  1
  S  S9  1  0.80317301  0.83466101  0.16989140  1
  S  S10  1  0.29924884  0.83666342  0.17031148  1
  S  S11  1  0.27438217  0.80999339  0.74698967  1
  S  S12  1  0.27486634  0.31039944  0.74668789  1
  S  S13  1  0.29810029  0.34039024  0.16990887  1
