# generated using pymatgen
data_Cr4InAgS8
_symmetry_space_group_name_H-M   'P 1'
_cell_length_a   6.84244204
_cell_length_b   6.84818697
_cell_length_c   7.81552935
_cell_angle_alpha   63.64337921
_cell_angle_beta   63.59034348
_cell_angle_gamma   59.51916122
_symmetry_Int_Tables_number   1
_chemical_formula_structural   Cr4InAgS8
_chemical_formula_sum   'Cr4 In1 Ag1 S8'
_cell_volume   271.12693556
_cell_formula_units_Z   1
loop_
 _symmetry_equiv_pos_site_id
 _symmetry_equiv_pos_as_xyz
  1  'x, y, z'
loop_
 _atom_site_type_symbol
 _atom_site_label
 _atom_site_symmetry_multiplicity
 _atom_site_fract_x
 _atom_site_fract_y
 _atom_site_fract_z
 _atom_site_occupancy
  Cr  Cr0  1  0.04620599  0.17978746  0.36172959  1
  Cr  Cr1  1  0.04647339  0.67644650  0.36210036  1
  Cr  Cr2  1  0.54496264  0.67358249  0.37838584  1
  Cr  Cr3  1  0.54584712  0.18096624  0.36039469  1
  In  In4  1  0.04692271  0.18138510  0.84257585  1
  Ag  Ag5  1  0.67699283  0.80383682  0.95376194  1
  S  S6  1  0.31144243  0.44496852  0.55948383  1
  S  S7  1  0.78750348  0.91872507  0.15953341  1
  S  S8  1  0.81260282  0.94498998  0.55648708  1
  S  S9  1  0.31094879  0.94511175  0.55805701  1
  S  S10  1  0.81244498  0.44433877  0.55895972  1
  S  S11  1  0.27313462  0.91843534  0.16037478  1
  S  S12  1  0.78471416  0.40559265  0.15751301  1
  S  S13  1  0.28298852  0.41210371  0.15474404  1
