# generated using pymatgen
data_CrO2
_symmetry_space_group_name_H-M   'P 1'
_cell_length_a   5.70101786
_cell_length_b   5.73752022
_cell_length_c   5.71499109
_cell_angle_alpha   119.48998260
_cell_angle_beta   90.01593781
_cell_angle_gamma   120.21080780
_symmetry_Int_Tables_number   1
_chemical_formula_structural   CrO2
_chemical_formula_sum   'Cr4 O8'
_cell_volume   132.75564370
_cell_formula_units_Z   4
loop_
 _symmetry_equiv_pos_site_id
 _symmetry_equiv_pos_as_xyz
  1  'x, y, z'
loop_
 _atom_site_type_symbol
 _atom_site_label
 _atom_site_symmetry_multiplicity
 _atom_site_fract_x
 _atom_site_fract_y
 _atom_site_fract_z
 _atom_site_occupancy
  Cr  Cr0  1  0.08912847  0.17971547  0.54027605  1
  Cr  Cr1  1  0.58878046  0.17975396  0.04018074  1
  Cr  Cr2  1  0.58907497  0.67973381  0.54042006  1
  Cr  Cr3  1  0.08858241  0.67978466  0.03963770  1
  O  O4  1  0.83999330  0.17970107  0.29046741  1
  O  O5  1  0.33994171  0.17994811  0.29041690  1
  O  O6  1  0.34020340  0.68172389  0.79129928  1
  O  O7  1  0.84051383  0.68098319  0.79107898  1
  O  O8  1  0.34008497  0.68092221  0.29123467  1
  O  O9  1  0.33947405  0.17985429  0.79094887  1
  O  O10  1  0.83988988  0.68181235  0.29091322  1
  O  O11  1  0.83994138  0.17989826  0.79066896  1
