# generated using pymatgen
data_CrSn4Au
_symmetry_space_group_name_H-M   'P 1'
_cell_length_a   6.14041948
_cell_length_b   6.63114452
_cell_length_c   7.49613667
_cell_angle_alpha   90.03245544
_cell_angle_beta   89.86764526
_cell_angle_gamma   118.52359772
_symmetry_Int_Tables_number   1
_chemical_formula_structural   CrSn4Au
_chemical_formula_sum   'Cr2 Sn8 Au2'
_cell_volume   268.17860697
_cell_formula_units_Z   2
loop_
 _symmetry_equiv_pos_site_id
 _symmetry_equiv_pos_as_xyz
  1  'x, y, z'
loop_
 _atom_site_type_symbol
 _atom_site_label
 _atom_site_symmetry_multiplicity
 _atom_site_fract_x
 _atom_site_fract_y
 _atom_site_fract_z
 _atom_site_occupancy
  Cr  Cr0  1  0.15288430  0.25270364  0.95277941  1
  Cr  Cr1  1  0.63022435  0.18378550  0.90327334  1
  Sn  Sn2  1  0.80648941  0.08677541  0.22874078  1
  Sn  Sn3  1  0.99268597  0.40796882  0.64485002  1
  Sn  Sn4  1  0.49417225  0.40801990  0.64478761  1
  Sn  Sn5  1  0.98493588  0.91797286  0.74821776  1
  Sn  Sn6  1  0.30627808  0.56254566  0.24879527  1
  Sn  Sn7  1  0.80816650  0.58459657  0.04833695  1
  Sn  Sn8  1  0.30760288  0.08796111  0.22791995  1
  Sn  Sn9  1  0.48264718  0.91773850  0.58148926  1
  Au  Au10  1  0.39656550  0.70699304  0.90236825  1
  Au  Au11  1  0.89474964  0.70691901  0.40339234  1
