# generated using pymatgen
data_Cs2AlInH6
_symmetry_space_group_name_H-M   'P 1'
_cell_length_a   6.41651392
_cell_length_b   6.41214371
_cell_length_c   6.41025162
_cell_angle_alpha   59.97333527
_cell_angle_beta   60.09305954
_cell_angle_gamma   59.87454987
_symmetry_Int_Tables_number   1
_chemical_formula_structural   Cs2AlInH6
_chemical_formula_sum   'Cs2 Al1 In1 H6'
_cell_volume   186.40836573
_cell_formula_units_Z   1
loop_
 _symmetry_equiv_pos_site_id
 _symmetry_equiv_pos_as_xyz
  1  'x, y, z'
loop_
 _atom_site_type_symbol
 _atom_site_label
 _atom_site_symmetry_multiplicity
 _atom_site_fract_x
 _atom_site_fract_y
 _atom_site_fract_z
 _atom_site_occupancy
  Cs  Cs0  1  0.58837938  0.14670756  0.97287130  1
  Cs  Cs1  1  0.08889814  0.64621049  0.47194639  1
  Al  Al2  1  0.33882624  0.89663899  0.72210819  1
  In  In3  1  0.83872688  0.39738622  0.22280072  1
  H  H4  1  0.13657020  0.09518460  0.92389798  1
  H  H5  1  0.53850174  0.09623463  0.52463019  1
  H  H6  1  0.53893286  0.69729018  0.52441621  1
  H  H7  1  0.13707513  0.09544477  0.52454484  1
  H  H8  1  0.13686019  0.69718391  0.92356896  1
  H  H9  1  0.53876573  0.69694483  0.92384934  1
