# generated using pymatgen
data_Cs2GaAgCl6
_symmetry_space_group_name_H-M   'P 1'
_cell_length_a   7.41239119
_cell_length_b   7.41307449
_cell_length_c   7.40288496
_cell_angle_alpha   59.82281876
_cell_angle_beta   59.84750748
_cell_angle_gamma   59.94919968
_symmetry_Int_Tables_number   1
_chemical_formula_structural   Cs2GaAgCl6
_chemical_formula_sum   'Cs2 Ga1 Ag1 Cl6'
_cell_volume   286.80711854
_cell_formula_units_Z   1
loop_
 _symmetry_equiv_pos_site_id
 _symmetry_equiv_pos_as_xyz
  1  'x, y, z'
loop_
 _atom_site_type_symbol
 _atom_site_label
 _atom_site_symmetry_multiplicity
 _atom_site_fract_x
 _atom_site_fract_y
 _atom_site_fract_z
 _atom_site_occupancy
  Cs  Cs0  1  0.06989137  0.80372554  0.76766247  1
  Cs  Cs1  1  0.57027340  0.30313039  0.26770788  1
  Ga  Ga2  1  0.82016134  0.55394709  0.51857752  1
  Ag  Ag3  1  0.32069653  0.05485001  0.01827579  1
  Cl  Cl4  1  0.58636278  0.78679520  0.75157136  1
  Cl  Cl5  1  0.05463333  0.78701490  0.28417903  1
  Cl  Cl6  1  0.05380765  0.32136002  0.28409493  1
  Cl  Cl7  1  0.58728647  0.32169944  0.75100332  1
  Cl  Cl8  1  0.05397443  0.32206813  0.75157648  1
  Cl  Cl9  1  0.58686489  0.78735369  0.28375137  1
