# generated using pymatgen
data_Cs2HgI4
_symmetry_space_group_name_H-M   'P 1'
_cell_length_a   7.69253206
_cell_length_b   9.33833981
_cell_length_c   11.30025101
_cell_angle_alpha   84.08545685
_cell_angle_beta   74.49629974
_cell_angle_gamma   75.58793640
_symmetry_Int_Tables_number   1
_chemical_formula_structural   Cs2HgI4
_chemical_formula_sum   'Cs4 Hg2 I8'
_cell_volume   757.02561490
_cell_formula_units_Z   2
loop_
 _symmetry_equiv_pos_site_id
 _symmetry_equiv_pos_as_xyz
  1  'x, y, z'
loop_
 _atom_site_type_symbol
 _atom_site_label
 _atom_site_symmetry_multiplicity
 _atom_site_fract_x
 _atom_site_fract_y
 _atom_site_fract_z
 _atom_site_occupancy
  Cs  Cs0  1  0.75421882  0.78778189  0.98245686  1
  Cs  Cs1  1  0.08720937  0.17110528  0.10564588  1
  Cs  Cs2  1  0.25105411  0.78932416  0.48315084  1
  Cs  Cs3  1  0.58650088  0.17185125  0.60479051  1
  Hg  Hg4  1  0.92855406  0.34483689  0.73211956  1
  Hg  Hg5  1  0.42903432  0.34488979  0.23234999  1
  I  I6  1  0.66828936  0.48643419  0.29469484  1
  I  I7  1  0.70380449  0.67623299  0.64888221  1
  I  I8  1  0.20344242  0.67590910  0.14837942  1
  I  I9  1  0.16381881  0.48670173  0.79440767  1
  I  I10  1  0.13437563  0.00317532  0.78434908  1
  I  I11  1  0.13408865  0.27276164  0.45021236  1
  I  I12  1  0.63554204  0.99678826  0.28416756  1
  I  I13  1  0.63413095  0.27138677  0.95067888  1
