# generated using pymatgen
data_Cs2KCrCl6
_symmetry_space_group_name_H-M   'P 1'
_cell_length_a   7.73211241
_cell_length_b   7.73232365
_cell_length_c   7.69820738
_cell_angle_alpha   59.87011719
_cell_angle_beta   60.03033066
_cell_angle_gamma   60.13348389
_symmetry_Int_Tables_number   1
_chemical_formula_structural   Cs2KCrCl6
_chemical_formula_sum   'Cs2 K1 Cr1 Cl6'
_cell_volume   325.52884946
_cell_formula_units_Z   1
loop_
 _symmetry_equiv_pos_site_id
 _symmetry_equiv_pos_as_xyz
  1  'x, y, z'
loop_
 _atom_site_type_symbol
 _atom_site_label
 _atom_site_symmetry_multiplicity
 _atom_site_fract_x
 _atom_site_fract_y
 _atom_site_fract_z
 _atom_site_occupancy
  Cs  Cs0  1  0.77892017  0.86537826  0.95489949  1
  Cs  Cs1  1  0.27932701  0.36592704  0.45508268  1
  K  K2  1  0.52979660  0.61806911  0.70504278  1
  Cr  Cr3  1  0.03053067  0.11694431  0.20469467  1
  Cl  Cl4  1  0.25152397  0.33791730  0.98364955  1
  Cl  Cl5  1  0.80882967  0.33803278  0.98331648  1
  Cl  Cl6  1  0.25112921  0.89606649  0.42574266  1
  Cl  Cl7  1  0.25152218  0.89579451  0.98382503  1
  Cl  Cl8  1  0.80830973  0.89628983  0.42591009  1
  Cl  Cl9  1  0.80857694  0.33793294  0.42605320  1
