# generated using pymatgen
data_Cs2KNiF6
_symmetry_space_group_name_H-M   'P 1'
_cell_length_a   6.41895580
_cell_length_b   6.42133331
_cell_length_c   6.41692209
_cell_angle_alpha   59.84714890
_cell_angle_beta   59.73070908
_cell_angle_gamma   59.98212051
_symmetry_Int_Tables_number   1
_chemical_formula_structural   Cs2KNiF6
_chemical_formula_sum   'Cs2 K1 Ni1 F6'
_cell_volume   186.40140925
_cell_formula_units_Z   1
loop_
 _symmetry_equiv_pos_site_id
 _symmetry_equiv_pos_as_xyz
  1  'x, y, z'
loop_
 _atom_site_type_symbol
 _atom_site_label
 _atom_site_symmetry_multiplicity
 _atom_site_fract_x
 _atom_site_fract_y
 _atom_site_fract_z
 _atom_site_occupancy
  Cs  Cs0  1  0.17688304  0.66780889  0.43922749  1
  Cs  Cs1  1  0.67691922  0.16771668  0.93923151  1
  K  K2  1  0.92675114  0.41968459  0.18943305  1
  Ni  Ni3  1  0.42748514  0.91856706  0.68879056  1
  F  F4  1  0.63890165  0.13340837  0.47551468  1
  F  F5  1  0.21395196  0.13282178  0.47433767  1
  F  F6  1  0.63867545  0.70731175  0.47471300  1
  F  F7  1  0.21351783  0.70815092  0.90186852  1
  F  F8  1  0.21328825  0.13289081  0.90140229  1
  F  F9  1  0.63833213  0.70764869  0.90140605  1
