# generated using pymatgen
data_Cs2LiAlF6
_symmetry_space_group_name_H-M   'P 1'
_cell_length_a   5.98975086
_cell_length_b   5.99007177
_cell_length_c   5.98441172
_cell_angle_alpha   59.84780502
_cell_angle_beta   59.85515213
_cell_angle_gamma   59.95125198
_symmetry_Int_Tables_number   1
_chemical_formula_structural   Cs2LiAlF6
_chemical_formula_sum   'Cs2 Li1 Al1 F6'
_cell_volume   151.42901951
_cell_formula_units_Z   1
loop_
 _symmetry_equiv_pos_site_id
 _symmetry_equiv_pos_as_xyz
  1  'x, y, z'
loop_
 _atom_site_type_symbol
 _atom_site_label
 _atom_site_symmetry_multiplicity
 _atom_site_fract_x
 _atom_site_fract_y
 _atom_site_fract_z
 _atom_site_occupancy
  Cs  Cs0  1  0.10666884  0.78098994  0.21267940  1
  Cs  Cs1  1  0.60702157  0.28250962  0.71338713  1
  Li  Li2  1  0.85683835  0.53217322  0.96233410  1
  Al  Al3  1  0.35733515  0.03210777  0.46298394  1
  F  F4  1  0.13493237  0.25439629  0.24103530  1
  F  F5  1  0.57926267  0.81063044  0.68336910  1
  F  F6  1  0.57994771  0.81024218  0.24106631  1
  F  F7  1  0.13522451  0.81068760  0.68268043  1
  F  F8  1  0.57973969  0.25508338  0.24103458  1
  F  F9  1  0.13572927  0.25342536  0.68312305  1
