# generated using pymatgen
data_Cs2NaScBr6
_symmetry_space_group_name_H-M   'P 1'
_cell_length_a   7.98820782
_cell_length_b   8.00498962
_cell_length_c   7.99476385
_cell_angle_alpha   59.88687897
_cell_angle_beta   59.82544327
_cell_angle_gamma   59.86144257
_symmetry_Int_Tables_number   1
_chemical_formula_structural   Cs2NaScBr6
_chemical_formula_sum   'Cs2 Na1 Sc1 Br6'
_cell_volume   360.32801467
_cell_formula_units_Z   1
loop_
 _symmetry_equiv_pos_site_id
 _symmetry_equiv_pos_as_xyz
  1  'x, y, z'
loop_
 _atom_site_type_symbol
 _atom_site_label
 _atom_site_symmetry_multiplicity
 _atom_site_fract_x
 _atom_site_fract_y
 _atom_site_fract_z
 _atom_site_occupancy
  Cs  Cs0  1  0.24465591  0.16197447  0.79038304  1
  Cs  Cs1  1  0.74446630  0.66187525  0.29137495  1
  Na  Na2  1  0.99362552  0.91256940  0.54124784  1
  Sc  Sc3  1  0.49409387  0.41228038  0.04099147  1
  Br  Br4  1  0.25824896  0.17690246  0.27732331  1
  Br  Br5  1  0.25823900  0.64981902  0.80386823  1
  Br  Br6  1  0.73174560  0.17575602  0.80435777  1
  Br  Br7  1  0.25805429  0.65006024  0.27724549  1
  Br  Br8  1  0.73180860  0.64890331  0.80389512  1
  Br  Br9  1  0.73108596  0.17620155  0.27846602  1
