# generated using pymatgen
data_Cs2NaInH6
_symmetry_space_group_name_H-M   'P 1'
_cell_length_a   6.30113220
_cell_length_b   6.29577827
_cell_length_c   6.29931450
_cell_angle_alpha   59.80780792
_cell_angle_beta   59.84875107
_cell_angle_gamma   59.85293579
_symmetry_Int_Tables_number   1
_chemical_formula_structural   Cs2NaInH6
_chemical_formula_sum   'Cs2 Na1 In1 H6'
_cell_volume   176.04819317
_cell_formula_units_Z   1
loop_
 _symmetry_equiv_pos_site_id
 _symmetry_equiv_pos_as_xyz
  1  'x, y, z'
loop_
 _atom_site_type_symbol
 _atom_site_label
 _atom_site_symmetry_multiplicity
 _atom_site_fract_x
 _atom_site_fract_y
 _atom_site_fract_z
 _atom_site_occupancy
  Cs  Cs0  1  0.91184497  0.86814237  0.90528673  1
  Cs  Cs1  1  0.41141519  0.36865583  0.40659815  1
  Na  Na2  1  0.66197407  0.61988789  0.65515560  1
  In  In3  1  0.16173688  0.11943628  0.15503018  1
  H  H4  1  0.38776174  0.89396471  0.93129790  1
  H  H5  1  0.38753718  0.89464265  0.37794864  1
  H  H6  1  0.93586558  0.89497656  0.37784383  1
  H  H7  1  0.93522418  0.34567219  0.93150491  1
  H  H8  1  0.38757741  0.34503949  0.93237054  1
  H  H9  1  0.93527013  0.34480271  0.37769008  1
