# generated using pymatgen
data_Cs2Zr(WO4)3
_symmetry_space_group_name_H-M   'P 1'
_cell_length_a   7.40516615
_cell_length_b   7.46361065
_cell_length_c   7.49077415
_cell_angle_alpha   60.72800827
_cell_angle_beta   60.50990295
_cell_angle_gamma   60.38948441
_symmetry_Int_Tables_number   1
_chemical_formula_structural   Cs2Zr(WO4)3
_chemical_formula_sum   'Cs2 Zr1 W3 O12'
_cell_volume   296.33181646
_cell_formula_units_Z   1
loop_
 _symmetry_equiv_pos_site_id
 _symmetry_equiv_pos_as_xyz
  1  'x, y, z'
loop_
 _atom_site_type_symbol
 _atom_site_label
 _atom_site_symmetry_multiplicity
 _atom_site_fract_x
 _atom_site_fract_y
 _atom_site_fract_z
 _atom_site_occupancy
  Cs  Cs0  1  0.87787628  0.64712656  0.04349623  1
  Cs  Cs1  1  0.12529732  0.90276873  0.29181418  1
  Zr  Zr2  1  0.49835300  0.77598029  0.66595018  1
  W  W3  1  0.49764794  0.27743506  0.66604751  1
  W  W4  1  0.49644175  0.27692753  0.16563407  1
  W  W5  1  0.99746424  0.27840346  0.66537476  1
  O  O6  1  0.81586885  0.22033748  0.97136390  1
  O  O7  1  0.19674584  0.33248070  0.72132295  1
  O  O8  1  0.82664347  0.57607430  0.60343856  1
  O  O9  1  0.56529415  0.33296689  0.35606799  1
  O  O10  1  0.56510431  0.98096305  0.72520041  1
  O  O11  1  0.18454775  0.33474422  0.35570276  1
  O  O12  1  0.80083001  0.22342832  0.61053962  1
  O  O13  1  0.43180323  0.57298124  0.60387307  1
  O  O14  1  0.17452250  0.97997594  0.72589755  1
  O  O15  1  0.43428892  0.22012602  0.97085887  1
  O  O16  1  0.56554765  0.97225124  0.32946709  1
  O  O17  1  0.43324310  0.57844436  0.98928809  1
