# generated using pymatgen
data_Cs3LiCl4
_symmetry_space_group_name_H-M   'P 1'
_cell_length_a   4.70132208
_cell_length_b   5.73156500
_cell_length_c   11.54694748
_cell_angle_alpha   89.75507355
_cell_angle_beta   101.83251190
_cell_angle_gamma   90.05079651
_symmetry_Int_Tables_number   1
_chemical_formula_structural   Cs3LiCl4
_chemical_formula_sum   'Cs3 Li1 Cl4'
_cell_volume   304.52906782
_cell_formula_units_Z   1
loop_
 _symmetry_equiv_pos_site_id
 _symmetry_equiv_pos_as_xyz
  1  'x, y, z'
loop_
 _atom_site_type_symbol
 _atom_site_label
 _atom_site_symmetry_multiplicity
 _atom_site_fract_x
 _atom_site_fract_y
 _atom_site_fract_z
 _atom_site_occupancy
  Cs  Cs0  1  0.11735567  0.32727715  0.26778963  1
  Cs  Cs1  1  0.47468233  0.82627594  0.97963572  1
  Cs  Cs2  1  0.32821459  0.32667187  0.68955344  1
  Li  Li3  1  0.73712564  0.82636046  0.51108176  1
  Cl  Cl4  1  0.21361692  0.82438540  0.46090338  1
  Cl  Cl5  1  0.71357387  0.32352078  0.46083876  1
  Cl  Cl6  1  0.84703386  0.82548243  0.72540241  1
  Cl  Cl7  1  0.96689558  0.32581890  0.96622509  1
