# generated using pymatgen
data_CsAlF4
_symmetry_space_group_name_H-M   'P 1'
_cell_length_a   6.27938366
_cell_length_b   7.26891851
_cell_length_c   7.76444483
_cell_angle_alpha   71.06597900
_cell_angle_beta   74.71204376
_cell_angle_gamma   82.17382812
_symmetry_Int_Tables_number   1
_chemical_formula_structural   CsAlF4
_chemical_formula_sum   'Cs3 Al3 F12'
_cell_volume   322.86653305
_cell_formula_units_Z   3
loop_
 _symmetry_equiv_pos_site_id
 _symmetry_equiv_pos_as_xyz
  1  'x, y, z'
loop_
 _atom_site_type_symbol
 _atom_site_label
 _atom_site_symmetry_multiplicity
 _atom_site_fract_x
 _atom_site_fract_y
 _atom_site_fract_z
 _atom_site_occupancy
  Cs  Cs0  1  0.14015484  0.70663416  0.91597003  1
  Cs  Cs1  1  0.96801370  0.41883028  0.64937931  1
  Cs  Cs2  1  0.55008197  0.56945616  0.29671583  1
  Al  Al3  1  0.99116707  0.05663241  0.25477347  1
  Al  Al4  1  0.59867632  0.99222332  0.61783695  1
  Al  Al5  1  0.46772838  0.13371091  0.98101127  1
  F  F6  1  0.74787217  0.08364686  0.04165768  1
  F  F7  1  0.17794399  0.13909842  0.98867697  1
  F  F8  1  0.49753690  0.37342623  0.98416471  1
  F  F9  1  0.55710685  0.90561825  0.89488703  1
  F  F10  1  0.04313108  0.30211493  0.26742390  1
  F  F11  1  0.91589105  0.95581096  0.56996143  1
  F  F12  1  0.34590733  0.07593871  0.59389853  1
  F  F13  1  0.56811053  0.77297342  0.61201268  1
  F  F14  1  0.70533133  0.11783665  0.36364615  1
  F  F15  1  0.56450540  0.20852204  0.71167684  1
  F  F16  1  0.31043708  0.00261911  0.23244931  1
  F  F17  1  0.96487755  0.80812389  0.28887036  1
