# generated using pymatgen
data_CsAuO
_symmetry_space_group_name_H-M   'P 1'
_cell_length_a   6.30586529
_cell_length_b   7.66548252
_cell_length_c   7.68514729
_cell_angle_alpha   86.60334015
_cell_angle_beta   79.90222931
_cell_angle_gamma   79.32330322
_symmetry_Int_Tables_number   1
_chemical_formula_structural   CsAuO
_chemical_formula_sum   'Cs4 Au4 O4'
_cell_volume   359.25763161
_cell_formula_units_Z   4
loop_
 _symmetry_equiv_pos_site_id
 _symmetry_equiv_pos_as_xyz
  1  'x, y, z'
loop_
 _atom_site_type_symbol
 _atom_site_label
 _atom_site_symmetry_multiplicity
 _atom_site_fract_x
 _atom_site_fract_y
 _atom_site_fract_z
 _atom_site_occupancy
  Cs  Cs0  1  0.63498747  0.00103447  0.93791586  1
  Cs  Cs1  1  0.13618423  0.27818927  0.65967107  1
  Cs  Cs2  1  0.83556944  0.99922097  0.41159669  1
  Cs  Cs3  1  0.63293231  0.56396818  0.37813273  1
  Au  Au4  1  0.17162421  0.74343312  0.10605612  1
  Au  Au5  1  0.65250349  0.50229520  0.84384871  1
  Au  Au6  1  0.16589822  0.31315529  0.13892679  1
  Au  Au7  1  0.13786119  0.72530472  0.72813278  1
  O  O8  1  0.83747268  0.69177735  0.69032735  1
  O  O9  1  0.12952556  0.04390063  0.04595400  1
  O  O10  1  0.13277748  0.56636882  0.30349070  1
  O  O11  1  0.63393456  0.28727469  0.67388982  1
