# generated using pymatgen
data_CsBr3
_symmetry_space_group_name_H-M   'P 1'
_cell_length_a   8.29425526
_cell_length_b   8.45294476
_cell_length_c   9.30667400
_cell_angle_alpha   89.87439728
_cell_angle_beta   89.98809052
_cell_angle_gamma   90.01187897
_symmetry_Int_Tables_number   1
_chemical_formula_structural   CsBr3
_chemical_formula_sum   'Cs4 Br12'
_cell_volume   652.49752195
_cell_formula_units_Z   4
loop_
 _symmetry_equiv_pos_site_id
 _symmetry_equiv_pos_as_xyz
  1  'x, y, z'
loop_
 _atom_site_type_symbol
 _atom_site_label
 _atom_site_symmetry_multiplicity
 _atom_site_fract_x
 _atom_site_fract_y
 _atom_site_fract_z
 _atom_site_occupancy
  Cs  Cs0  1  0.61430550  0.57751334  0.74381202  1
  Cs  Cs1  1  0.11285068  0.57731247  0.24317013  1
  Cs  Cs2  1  0.11455945  0.07725032  0.74334627  1
  Cs  Cs3  1  0.61362743  0.07784705  0.24347429  1
  Br  Br4  1  0.36452433  0.32538018  0.99400342  1
  Br  Br5  1  0.36476851  0.32512599  0.49224076  1
  Br  Br6  1  0.86463362  0.32501021  0.99366355  1
  Br  Br7  1  0.36442125  0.82698148  0.49224067  1
  Br  Br8  1  0.11430981  0.07850757  0.24495824  1
  Br  Br9  1  0.11379552  0.57843274  0.74645793  1
  Br  Br10  1  0.86470485  0.82691485  0.49283999  1
  Br  Br11  1  0.86461830  0.82599264  0.99401802  1
  Br  Br12  1  0.61308676  0.57823771  0.25263554  1
  Br  Br13  1  0.86456501  0.32440719  0.49322999  1
  Br  Br14  1  0.61470562  0.07854324  0.74501264  1
  Br  Br15  1  0.36500707  0.82611585  0.99165267  1
