# generated using pymatgen
data_CsFeS2
_symmetry_space_group_name_H-M   'P 1'
_cell_length_a   5.37662601
_cell_length_b   6.95024586
_cell_length_c   7.35294533
_cell_angle_alpha   113.58928680
_cell_angle_beta   90.88543701
_cell_angle_gamma   112.95407104
_symmetry_Int_Tables_number   1
_chemical_formula_structural   CsFeS2
_chemical_formula_sum   'Cs2 Fe2 S4'
_cell_volume   227.03174374
_cell_formula_units_Z   2
loop_
 _symmetry_equiv_pos_site_id
 _symmetry_equiv_pos_as_xyz
  1  'x, y, z'
loop_
 _atom_site_type_symbol
 _atom_site_label
 _atom_site_symmetry_multiplicity
 _atom_site_fract_x
 _atom_site_fract_y
 _atom_site_fract_z
 _atom_site_occupancy
  Cs  Cs0  1  0.71817923  0.77651721  0.32042596  1
  Cs  Cs1  1  0.08246195  0.47392598  0.60327947  1
  Fe  Fe2  1  0.14763322  0.12618959  0.96156722  1
  Fe  Fe3  1  0.64874977  0.12938458  0.96155423  1
  S  S4  1  0.75602776  0.83420706  0.87910235  1
  S  S5  1  0.37930349  0.07850144  0.70087534  1
  S  S6  1  0.03783332  0.41230538  0.04031632  1
  S  S7  1  0.43203962  0.18177074  0.22517847  1
