# generated using pymatgen
data_CsHO
_symmetry_space_group_name_H-M   'P 1'
_cell_length_a   4.35506392
_cell_length_b   4.48437071
_cell_length_c   6.83925486
_cell_angle_alpha   108.63608551
_cell_angle_beta   107.66007996
_cell_angle_gamma   90.04693604
_symmetry_Int_Tables_number   1
_chemical_formula_structural   CsHO
_chemical_formula_sum   'Cs2 H2 O2'
_cell_volume   119.89172526
_cell_formula_units_Z   2
loop_
 _symmetry_equiv_pos_site_id
 _symmetry_equiv_pos_as_xyz
  1  'x, y, z'
loop_
 _atom_site_type_symbol
 _atom_site_label
 _atom_site_symmetry_multiplicity
 _atom_site_fract_x
 _atom_site_fract_y
 _atom_site_fract_z
 _atom_site_occupancy
  Cs  Cs0  1  0.23976089  0.22925441  0.16430689  1
  Cs  Cs1  1  0.48670873  0.96058512  0.62401879  1
  H  H2  1  0.07419152  0.56669462  0.82897073  1
  H  H3  1  0.67753172  0.66968441  0.03555293  1
  O  O4  1  0.00422436  0.48970324  0.68108749  1
  O  O5  1  0.75576365  0.74066478  0.18038745  1
