# generated using pymatgen
data_CsLaS2
_symmetry_space_group_name_H-M   'P 1'
_cell_length_a   4.28516626
_cell_length_b   4.28537369
_cell_length_c   8.35759068
_cell_angle_alpha   75.18350220
_cell_angle_beta   75.23303986
_cell_angle_gamma   60.11962128
_symmetry_Int_Tables_number   1
_chemical_formula_structural   CsLaS2
_chemical_formula_sum   'Cs1 La1 S2'
_cell_volume   127.15176805
_cell_formula_units_Z   1
loop_
 _symmetry_equiv_pos_site_id
 _symmetry_equiv_pos_as_xyz
  1  'x, y, z'
loop_
 _atom_site_type_symbol
 _atom_site_label
 _atom_site_symmetry_multiplicity
 _atom_site_fract_x
 _atom_site_fract_y
 _atom_site_fract_z
 _atom_site_occupancy
  Cs  Cs0  1  0.49070349  0.33355308  0.76135957  1
  La  La1  1  0.99027097  0.83409101  0.26180571  1
  S  S2  1  0.26091376  0.10400181  0.44769982  1
  S  S3  1  0.72087765  0.56462878  0.07528276  1
