# generated using pymatgen
data_CsLi2Br3
_symmetry_space_group_name_H-M   'P 1'
_cell_length_a   4.46716595
_cell_length_b   5.01912689
_cell_length_c   8.28509235
_cell_angle_alpha   89.87765503
_cell_angle_beta   90.11459351
_cell_angle_gamma   89.81935120
_symmetry_Int_Tables_number   1
_chemical_formula_structural   CsLi2Br3
_chemical_formula_sum   'Cs1 Li2 Br3'
_cell_volume   185.76059444
_cell_formula_units_Z   1
loop_
 _symmetry_equiv_pos_site_id
 _symmetry_equiv_pos_as_xyz
  1  'x, y, z'
loop_
 _atom_site_type_symbol
 _atom_site_label
 _atom_site_symmetry_multiplicity
 _atom_site_fract_x
 _atom_site_fract_y
 _atom_site_fract_z
 _atom_site_occupancy
  Cs  Cs0  1  0.66823643  0.92357522  0.58119464  1
  Li  Li1  1  0.16879301  0.92478585  0.97124779  1
  Li  Li2  1  0.66894716  0.42410794  0.12465662  1
  Br  Br3  1  0.16869818  0.42434794  0.34763098  1
  Br  Br4  1  0.66878974  0.92502379  0.09895850  1
  Br  Br5  1  0.16855057  0.42411700  0.85608429  1
