# generated using pymatgen
data_CsMnP3HO10
_symmetry_space_group_name_H-M   'P 1'
_cell_length_a   4.70385361
_cell_length_b   5.86953259
_cell_length_c   8.27542210
_cell_angle_alpha   90.73153687
_cell_angle_beta   89.69033813
_cell_angle_gamma   101.79192352
_symmetry_Int_Tables_number   1
_chemical_formula_structural   CsMnP3HO10
_chemical_formula_sum   'Cs1 Mn1 P3 H1 O10'
_cell_volume   223.63869240
_cell_formula_units_Z   1
loop_
 _symmetry_equiv_pos_site_id
 _symmetry_equiv_pos_as_xyz
  1  'x, y, z'
loop_
 _atom_site_type_symbol
 _atom_site_label
 _atom_site_symmetry_multiplicity
 _atom_site_fract_x
 _atom_site_fract_y
 _atom_site_fract_z
 _atom_site_occupancy
  Cs  Cs0  1  0.46072325  0.91521376  0.33383003  1
  Mn  Mn1  1  0.45194006  0.30373126  0.84997642  1
  P  P2  1  0.95511675  0.41285852  0.08838412  1
  P  P3  1  0.94839019  0.41590452  0.59243017  1
  P  P4  1  0.04220923  0.71124506  0.85244650  1
  H  H5  1  0.95222205  0.40576929  0.35592189  1
  O  O6  1  0.70122194  0.65465254  0.85211825  1
  O  O7  1  0.07422224  0.67970669  0.03743034  1
  O  O8  1  0.81803548  0.43465662  0.24945423  1
  O  O9  1  0.71691155  0.25429890  0.98146015  1
  O  O10  1  0.66533190  0.26298717  0.65266377  1
  O  O11  1  0.91202670  0.64350373  0.54570460  1
  O  O12  1  0.21314281  0.96138698  0.79590511  1
  O  O13  1  0.15953678  0.48553059  0.76085341  1
  O  O14  1  0.21594803  0.30642408  0.06434662  1
  O  O15  1  0.07620580  0.30825302  0.46063831  1
