# generated using pymatgen
data_CsNd5Se8
_symmetry_space_group_name_H-M   'P 1'
_cell_length_a   7.96875715
_cell_length_b   7.97653198
_cell_length_c   7.95669079
_cell_angle_alpha   108.96360779
_cell_angle_beta   108.98850250
_cell_angle_gamma   110.03595734
_symmetry_Int_Tables_number   1
_chemical_formula_structural   CsNd5Se8
_chemical_formula_sum   'Cs1 Nd5 Se8'
_cell_volume   391.32558726
_cell_formula_units_Z   1
loop_
 _symmetry_equiv_pos_site_id
 _symmetry_equiv_pos_as_xyz
  1  'x, y, z'
loop_
 _atom_site_type_symbol
 _atom_site_label
 _atom_site_symmetry_multiplicity
 _atom_site_fract_x
 _atom_site_fract_y
 _atom_site_fract_z
 _atom_site_occupancy
  Cs  Cs0  1  0.46595520  0.53073287  0.41047889  1
  Nd  Nd1  1  0.58658069  0.40411884  0.90960038  1
  Nd  Nd2  1  0.71317214  0.02882556  0.16180490  1
  Nd  Nd3  1  0.08801214  0.65364432  0.66093242  1
  Nd  Nd4  1  0.96581399  0.15476158  0.78839940  1
  Nd  Nd5  1  0.21284886  0.90410960  0.28714302  1
  Se  Se6  1  0.86149150  0.79069746  0.38281295  1
  Se  Se7  1  0.32601646  0.09886615  0.01487315  1
  Se  Se8  1  0.70058286  0.26040417  0.53966564  1
  Se  Se9  1  0.16440409  0.25835198  0.53995293  1
  Se  Se10  1  0.85547155  0.78862423  0.90980262  1
  Se  Se11  1  0.48264104  0.95643300  0.70251238  1
  Se  Se12  1  0.95967013  0.42069429  0.17296302  1
  Se  Se13  1  0.32715815  0.63823223  0.01392540  1
