# generated using pymatgen
data_CsPrCdSe3
_symmetry_space_group_name_H-M   'P 1'
_cell_length_a   4.37284136
_cell_length_b   8.50513744
_cell_length_c   11.42594242
_cell_angle_alpha   89.92128754
_cell_angle_beta   89.90462494
_cell_angle_gamma   104.28679657
_symmetry_Int_Tables_number   1
_chemical_formula_structural   CsPrCdSe3
_chemical_formula_sum   'Cs2 Pr2 Cd2 Se6'
_cell_volume   411.80543744
_cell_formula_units_Z   2
loop_
 _symmetry_equiv_pos_site_id
 _symmetry_equiv_pos_as_xyz
  1  'x, y, z'
loop_
 _atom_site_type_symbol
 _atom_site_label
 _atom_site_symmetry_multiplicity
 _atom_site_fract_x
 _atom_site_fract_y
 _atom_site_fract_z
 _atom_site_occupancy
  Cs  Cs0  1  0.67161083  0.71248716  0.14984912  1
  Cs  Cs1  1  0.15667918  0.68298668  0.65102649  1
  Pr  Pr2  1  0.41596419  0.19799556  0.40133047  1
  Pr  Pr3  1  0.41564831  0.19858870  0.90112221  1
  Cd  Cd4  1  0.87466568  0.11669743  0.65057987  1
  Cd  Cd5  1  0.95492351  0.27878538  0.15046008  1
  Se  Se6  1  0.35529536  0.07585961  0.15061241  1
  Se  Se7  1  0.03518416  0.44013241  0.34913889  1
  Se  Se8  1  0.03528821  0.43951496  0.95350802  1
  Se  Se9  1  0.47461602  0.31492931  0.65111929  1
  Se  Se10  1  0.79367316  0.95473331  0.84918201  1
  Se  Se11  1  0.79454798  0.95534742  0.45327708  1
