# generated using pymatgen
data_CsSiTe3
_symmetry_space_group_name_H-M   'P 1'
_cell_length_a   7.94781065
_cell_length_b   10.35754681
_cell_length_c   10.75360489
_cell_angle_alpha   74.00659180
_cell_angle_beta   75.71255493
_cell_angle_gamma   76.94895172
_symmetry_Int_Tables_number   1
_chemical_formula_structural   CsSiTe3
_chemical_formula_sum   'Cs4 Si4 Te12'
_cell_volume   812.72889355
_cell_formula_units_Z   4
loop_
 _symmetry_equiv_pos_site_id
 _symmetry_equiv_pos_as_xyz
  1  'x, y, z'
loop_
 _atom_site_type_symbol
 _atom_site_label
 _atom_site_symmetry_multiplicity
 _atom_site_fract_x
 _atom_site_fract_y
 _atom_site_fract_z
 _atom_site_occupancy
  Cs  Cs0  1  0.86397183  0.16821401  0.30988207  1
  Cs  Cs1  1  0.36328411  0.66881496  0.80987817  1
  Cs  Cs2  1  0.30174944  0.39464718  0.50162023  1
  Cs  Cs3  1  0.80179793  0.89444554  0.00348717  1
  Si  Si4  1  0.85297972  0.67470717  0.53358346  1
  Si  Si5  1  0.34754643  0.96725863  0.49819309  1
  Si  Si6  1  0.35374978  0.17710930  0.03407098  1
  Si  Si7  1  0.85280961  0.46869731  0.99740797  1
  Te  Te8  1  0.78368855  0.44693878  0.55808085  1
  Te  Te9  1  0.65008610  0.30454525  0.95258039  1
  Te  Te10  1  0.38662159  0.11899333  0.25952855  1
  Te  Te11  1  0.54791063  0.01953512  0.65362900  1
  Te  Te12  1  0.15067747  0.80088073  0.45335236  1
  Te  Te13  1  0.15127403  0.30576497  0.91620076  1
  Te  Te14  1  0.56478190  0.55566263  0.13420460  1
  Te  Te15  1  0.06111141  0.05585276  0.63505846  1
  Te  Te16  1  0.88636464  0.61673480  0.75951535  1
  Te  Te17  1  0.65013754  0.80137289  0.41741231  1
  Te  Te18  1  0.04813170  0.52004993  0.15434125  1
  Te  Te19  1  0.28382811  0.95367104  0.05719599  1
