# generated using pymatgen
data_CsUAgS3
_symmetry_space_group_name_H-M   'P 1'
_cell_length_a   4.19133520
_cell_length_b   8.01268864
_cell_length_c   10.56282425
_cell_angle_alpha   89.95805359
_cell_angle_beta   89.94437408
_cell_angle_gamma   105.35091400
_symmetry_Int_Tables_number   1
_chemical_formula_structural   CsUAgS3
_chemical_formula_sum   'Cs2 U2 Ag2 S6'
_cell_volume   342.08387847
_cell_formula_units_Z   2
loop_
 _symmetry_equiv_pos_site_id
 _symmetry_equiv_pos_as_xyz
  1  'x, y, z'
loop_
 _atom_site_type_symbol
 _atom_site_label
 _atom_site_symmetry_multiplicity
 _atom_site_fract_x
 _atom_site_fract_y
 _atom_site_fract_z
 _atom_site_occupancy
  Cs  Cs0  1  0.18833262  0.82283002  0.56836075  1
  Cs  Cs1  1  0.71174848  0.86528128  0.06863387  1
  U  U2  1  0.45052755  0.34470540  0.31808215  1
  U  U3  1  0.44966477  0.34597594  0.81845427  1
  Ag  Ag4  1  0.90765929  0.25904131  0.56838310  1
  Ag  Ag5  1  0.99737823  0.43405154  0.06797714  1
  S  S6  1  0.06510484  0.57310277  0.85826594  1
  S  S7  1  0.50446439  0.45618147  0.56927061  1
  S  S8  1  0.83855605  0.12189363  0.78135335  1
  S  S9  1  0.06422729  0.57198292  0.28117391  1
  S  S10  1  0.83916652  0.12239856  0.35813621  1
  S  S11  1  0.39827284  0.23930620  0.06908751  1
