# generated using pymatgen
data_CsYbBr3
_symmetry_space_group_name_H-M   'P 1'
_cell_length_a   5.80062723
_cell_length_b   5.78674364
_cell_length_c   5.81101322
_cell_angle_alpha   89.72543335
_cell_angle_beta   89.84158325
_cell_angle_gamma   89.84220886
_symmetry_Int_Tables_number   1
_chemical_formula_structural   CsYbBr3
_chemical_formula_sum   'Cs1 Yb1 Br3'
_cell_volume   195.05306809
_cell_formula_units_Z   1
loop_
 _symmetry_equiv_pos_site_id
 _symmetry_equiv_pos_as_xyz
  1  'x, y, z'
loop_
 _atom_site_type_symbol
 _atom_site_label
 _atom_site_symmetry_multiplicity
 _atom_site_fract_x
 _atom_site_fract_y
 _atom_site_fract_z
 _atom_site_occupancy
  Cs  Cs0  1  0.21918163  0.63012087  0.25754508  1
  Yb  Yb1  1  0.71944261  0.12956533  0.75798810  1
  Br  Br2  1  0.71939093  0.62961280  0.75764179  1
  Br  Br3  1  0.21855214  0.13157931  0.75723815  1
  Br  Br4  1  0.71887106  0.13060698  0.25756365  1
