# generated using pymatgen
data_Cu2O3
_symmetry_space_group_name_H-M   'P 1'
_cell_length_a   6.41569662
_cell_length_b   6.41318655
_cell_length_c   6.35782862
_cell_angle_alpha   109.37617493
_cell_angle_beta   109.88568115
_cell_angle_gamma   109.59489441
_symmetry_Int_Tables_number   1
_chemical_formula_structural   Cu2O3
_chemical_formula_sum   'Cu8 O12'
_cell_volume   200.26283623
_cell_formula_units_Z   4
loop_
 _symmetry_equiv_pos_site_id
 _symmetry_equiv_pos_as_xyz
  1  'x, y, z'
loop_
 _atom_site_type_symbol
 _atom_site_label
 _atom_site_symmetry_multiplicity
 _atom_site_fract_x
 _atom_site_fract_y
 _atom_site_fract_z
 _atom_site_occupancy
  Cu  Cu0  1  0.16794161  0.24333693  0.39700678  1
  Cu  Cu1  1  0.66766322  0.24252124  0.89762390  1
  Cu  Cu2  1  0.16787654  0.24275592  0.89535743  1
  Cu  Cu3  1  0.66763616  0.24261977  0.39641982  1
  Cu  Cu4  1  0.16750193  0.74302059  0.89618182  1
  Cu  Cu5  1  0.66817510  0.74336928  0.39697137  1
  Cu  Cu6  1  0.66813618  0.73448807  0.89294982  1
  Cu  Cu7  1  0.16785732  0.74197930  0.39508900  1
  O  O8  1  0.84726441  0.23280221  0.21692595  1
  O  O9  1  0.80459923  0.05374315  0.72490942  1
  O  O10  1  0.84601331  0.60653394  0.59341967  1
  O  O11  1  0.98950899  0.57227081  0.03647098  1
  O  O12  1  0.49552807  0.89110643  0.22010657  1
  O  O13  1  0.35668361  0.92385477  0.76620257  1
  O  O14  1  0.98866463  0.91903675  0.39500815  1
  O  O15  1  0.50134462  0.26451001  0.59250641  1
  O  O16  1  0.53703278  0.43961796  0.07353961  1
  O  O17  1  0.35481077  0.57157433  0.40710104  1
  O  O18  1  0.18744881  0.43322659  0.72499686  1
  O  O19  1  0.15907212  0.05959684  0.07279332  1
