# generated using pymatgen
data_Cu2SnSe3
_symmetry_space_group_name_H-M   'P 1'
_cell_length_a   3.90320063
_cell_length_b   5.88789368
_cell_length_c   6.19892120
_cell_angle_alpha   115.66494751
_cell_angle_beta   89.91622925
_cell_angle_gamma   89.86228180
_symmetry_Int_Tables_number   1
_chemical_formula_structural   Cu2SnSe3
_chemical_formula_sum   'Cu2 Sn1 Se3'
_cell_volume   128.40552315
_cell_formula_units_Z   1
loop_
 _symmetry_equiv_pos_site_id
 _symmetry_equiv_pos_as_xyz
  1  'x, y, z'
loop_
 _atom_site_type_symbol
 _atom_site_label
 _atom_site_symmetry_multiplicity
 _atom_site_fract_x
 _atom_site_fract_y
 _atom_site_fract_z
 _atom_site_occupancy
  Cu  Cu0  1  0.29518858  0.52615827  0.07431833  1
  Cu  Cu1  1  0.79523653  0.38940915  0.38661796  1
  Sn  Sn2  1  0.29519442  0.95341545  0.65189135  1
  Se  Se3  1  0.29464275  0.46864456  0.65067381  1
  Se  Se4  1  0.79505962  0.77515513  0.30733362  1
  Se  Se5  1  0.79397297  0.16502127  0.98680097  1
