# generated using pymatgen
data_Cu6SnWS8
_symmetry_space_group_name_H-M   'P 1'
_cell_length_a   5.84952736
_cell_length_b   5.85981464
_cell_length_c   9.14715481
_cell_angle_alpha   89.98418427
_cell_angle_beta   90.04626465
_cell_angle_gamma   89.91693878
_symmetry_Int_Tables_number   1
_chemical_formula_structural   Cu6SnWS8
_chemical_formula_sum   'Cu6 Sn1 W1 S8'
_cell_volume   313.53791782
_cell_formula_units_Z   1
loop_
 _symmetry_equiv_pos_site_id
 _symmetry_equiv_pos_as_xyz
  1  'x, y, z'
loop_
 _atom_site_type_symbol
 _atom_site_label
 _atom_site_symmetry_multiplicity
 _atom_site_fract_x
 _atom_site_fract_y
 _atom_site_fract_z
 _atom_site_occupancy
  Cu  Cu0  1  0.30563086  0.80495518  0.95258558  1
  Cu  Cu1  1  0.30544633  0.30412272  0.65245855  1
  Cu  Cu2  1  0.30614612  0.30434921  0.95506072  1
  Cu  Cu3  1  0.30543572  0.80488986  0.39405912  1
  Cu  Cu4  1  0.80571139  0.80448526  0.17009057  1
  Cu  Cu5  1  0.80561143  0.30409446  0.16963303  1
  Sn  Sn6  1  0.80577987  0.80464977  0.67635942  1
  W  W7  1  0.30594280  0.30391088  0.31717432  1
  S  S8  1  0.05705715  0.05623325  0.28931010  1
  S  S9  1  0.06867073  0.54157847  0.07473397  1
  S  S10  1  0.52533692  0.07499835  0.51209795  1
  S  S11  1  0.53635097  0.06422450  0.07415113  1
  S  S12  1  0.08737727  0.53795683  0.51223230  1
  S  S13  1  0.08687305  0.06588664  0.81483519  1
  S  S14  1  0.52930033  0.54218805  0.81520611  1
  S  S15  1  0.55918735  0.55305678  0.29050475  1
