# generated using pymatgen
data_CuI
_symmetry_space_group_name_H-M   'P 1'
_cell_length_a   6.02594519
_cell_length_b   6.05950212
_cell_length_c   6.11760902
_cell_angle_alpha   89.87552643
_cell_angle_beta   89.86615753
_cell_angle_gamma   89.98076630
_symmetry_Int_Tables_number   1
_chemical_formula_structural   CuI
_chemical_formula_sum   'Cu4 I4'
_cell_volume   223.37861983
_cell_formula_units_Z   4
loop_
 _symmetry_equiv_pos_site_id
 _symmetry_equiv_pos_as_xyz
  1  'x, y, z'
loop_
 _atom_site_type_symbol
 _atom_site_label
 _atom_site_symmetry_multiplicity
 _atom_site_fract_x
 _atom_site_fract_y
 _atom_site_fract_z
 _atom_site_occupancy
  Cu  Cu0  1  0.29905030  0.40859038  0.71881372  1
  Cu  Cu1  1  0.30008888  0.90983456  0.21933907  1
  Cu  Cu2  1  0.79991305  0.90936744  0.21956137  1
  Cu  Cu3  1  0.30040666  0.90987217  0.71927041  1
  I  I4  1  0.55106068  0.16007304  0.46791425  1
  I  I5  1  0.04890563  0.66012120  0.47000781  1
  I  I6  1  0.04829063  0.15992258  0.97014952  1
  I  I7  1  0.55112100  0.65962762  0.96847570  1
