# generated using pymatgen
data_CuNi
_symmetry_space_group_name_H-M   'P 1'
_cell_length_a   2.61429262
_cell_length_b   2.54170918
_cell_length_c   4.22702789
_cell_angle_alpha   89.78874207
_cell_angle_beta   89.77774048
_cell_angle_gamma   119.19967651
_symmetry_Int_Tables_number   1
_chemical_formula_structural   CuNi
_chemical_formula_sum   'Cu1 Ni1'
_cell_volume   24.51770850
_cell_formula_units_Z   1
loop_
 _symmetry_equiv_pos_site_id
 _symmetry_equiv_pos_as_xyz
  1  'x, y, z'
loop_
 _atom_site_type_symbol
 _atom_site_label
 _atom_site_symmetry_multiplicity
 _atom_site_fract_x
 _atom_site_fract_y
 _atom_site_fract_z
 _atom_site_occupancy
  Cu  Cu0  1  0.82173485  0.82679975  0.16855821  1
  Ni  Ni1  1  0.15571965  0.49319831  0.66895181  1
