# generated using pymatgen
data_CuS
_symmetry_space_group_name_H-M   'P 1'
_cell_length_a   3.64086652
_cell_length_b   3.64957666
_cell_length_c   3.58804345
_cell_angle_alpha   59.02742386
_cell_angle_beta   60.03300095
_cell_angle_gamma   59.94634628
_symmetry_Int_Tables_number   1
_chemical_formula_structural   CuS
_chemical_formula_sum   'Cu1 S1'
_cell_volume   33.45248964
_cell_formula_units_Z   1
loop_
 _symmetry_equiv_pos_site_id
 _symmetry_equiv_pos_as_xyz
  1  'x, y, z'
loop_
 _atom_site_type_symbol
 _atom_site_label
 _atom_site_symmetry_multiplicity
 _atom_site_fract_x
 _atom_site_fract_y
 _atom_site_fract_z
 _atom_site_occupancy
  Cu  Cu0  1  0.95346463  0.66398865  0.00722072  1
  S  S1  1  0.70257866  0.41194394  0.75622070  1
