# generated using pymatgen
data_CuSnPd2
_symmetry_space_group_name_H-M   'P 1'
_cell_length_a   4.47226572
_cell_length_b   4.46828890
_cell_length_c   4.46715021
_cell_angle_alpha   59.80344772
_cell_angle_beta   59.81252670
_cell_angle_gamma   59.96954346
_symmetry_Int_Tables_number   1
_chemical_formula_structural   CuSnPd2
_chemical_formula_sum   'Cu1 Sn1 Pd2'
_cell_volume   62.92429540
_cell_formula_units_Z   1
loop_
 _symmetry_equiv_pos_site_id
 _symmetry_equiv_pos_as_xyz
  1  'x, y, z'
loop_
 _atom_site_type_symbol
 _atom_site_label
 _atom_site_symmetry_multiplicity
 _atom_site_fract_x
 _atom_site_fract_y
 _atom_site_fract_z
 _atom_site_occupancy
  Cu  Cu0  1  0.13070512  0.92156470  0.16401383  1
  Sn  Sn1  1  0.63048381  0.42155635  0.66442323  1
  Pd  Pd2  1  0.38098994  0.17188023  0.41421178  1
  Pd  Pd3  1  0.88068634  0.67175436  0.91394860  1
