# generated using pymatgen
data_Dy(Al2Cr)4
_symmetry_space_group_name_H-M   'P 1'
_cell_length_a   5.03949642
_cell_length_b   6.77326679
_cell_length_c   6.81290913
_cell_angle_alpha   81.86814880
_cell_angle_beta   67.92578888
_cell_angle_gamma   67.91375732
_symmetry_Int_Tables_number   1
_chemical_formula_structural   Dy(Al2Cr)4
_chemical_formula_sum   'Dy1 Al8 Cr4'
_cell_volume   199.69043065
_cell_formula_units_Z   1
loop_
 _symmetry_equiv_pos_site_id
 _symmetry_equiv_pos_as_xyz
  1  'x, y, z'
loop_
 _atom_site_type_symbol
 _atom_site_label
 _atom_site_symmetry_multiplicity
 _atom_site_fract_x
 _atom_site_fract_y
 _atom_site_fract_z
 _atom_site_occupancy
  Dy  Dy0  1  0.82735032  0.43710047  0.00992653  1
  Al  Al1  1  0.10789307  0.66008466  0.22877000  1
  Al  Al2  1  0.82720292  0.77791977  0.66933644  1
  Al  Al3  1  0.16511905  0.09900802  0.66897500  1
  Al  Al4  1  0.82781309  0.09690222  0.35031080  1
  Al  Al5  1  0.54923856  0.21806474  0.78782874  1
  Al  Al6  1  0.48536730  0.78004616  0.35134158  1
  Al  Al7  1  0.32776532  0.21838468  0.22682306  1
  Al  Al8  1  0.32723728  0.65954226  0.78685111  1
  Cr  Cr9  1  0.32687896  0.93700677  0.00933471  1
  Cr  Cr10  1  0.82751238  0.93754452  0.00916876  1
  Cr  Cr11  1  0.82758331  0.43785375  0.50975597  1
  Cr  Cr12  1  0.32730609  0.43767664  0.50925052  1
