# generated using pymatgen
data_Dy(FeSi)2
_symmetry_space_group_name_H-M   'P 1'
_cell_length_a   3.96231556
_cell_length_b   3.96572948
_cell_length_c   5.53529167
_cell_angle_alpha   111.08349609
_cell_angle_beta   111.20441437
_cell_angle_gamma   89.96506500
_symmetry_Int_Tables_number   1
_chemical_formula_structural   Dy(FeSi)2
_chemical_formula_sum   'Dy1 Fe2 Si2'
_cell_volume   74.81831014
_cell_formula_units_Z   1
loop_
 _symmetry_equiv_pos_site_id
 _symmetry_equiv_pos_as_xyz
  1  'x, y, z'
loop_
 _atom_site_type_symbol
 _atom_site_label
 _atom_site_symmetry_multiplicity
 _atom_site_fract_x
 _atom_site_fract_y
 _atom_site_fract_z
 _atom_site_occupancy
  Dy  Dy0  1  0.63940084  0.24698369  0.32384115  1
  Fe  Fe1  1  0.88936096  0.99721044  0.82383448  1
  Fe  Fe2  1  0.38957912  0.49736020  0.82388377  1
  Si  Si3  1  0.00636149  0.61537755  0.05778961  1
  Si  Si4  1  0.26842856  0.87990314  0.58712959  1
