# generated using pymatgen
data_Dy(Mo3S4)2
_symmetry_space_group_name_H-M   'P 1'
_cell_length_a   6.51806450
_cell_length_b   6.50849009
_cell_length_c   6.52384996
_cell_angle_alpha   91.15765381
_cell_angle_beta   90.68627930
_cell_angle_gamma   91.24758148
_symmetry_Int_Tables_number   1
_chemical_formula_structural   Dy(Mo3S4)2
_chemical_formula_sum   'Dy1 Mo6 S8'
_cell_volume   276.61627882
_cell_formula_units_Z   1
loop_
 _symmetry_equiv_pos_site_id
 _symmetry_equiv_pos_as_xyz
  1  'x, y, z'
loop_
 _atom_site_type_symbol
 _atom_site_label
 _atom_site_symmetry_multiplicity
 _atom_site_fract_x
 _atom_site_fract_y
 _atom_site_fract_z
 _atom_site_occupancy
  Dy  Dy0  1  0.53418016  0.42117187  0.44152895  1
  Mo  Mo1  1  0.97194391  0.84548575  0.22324812  1
  Mo  Mo2  1  0.75707167  0.86356509  0.86532211  1
  Mo  Mo3  1  0.09257098  0.00096111  0.66815603  1
  Mo  Mo4  1  0.11285434  0.64302874  0.88431174  1
  Mo  Mo5  1  0.95397395  0.20104989  0.01008074  1
  Mo  Mo6  1  0.31064913  0.98772204  0.02514412  1
  S  S7  1  0.29306531  0.66525346  0.20321774  1
  S  S8  1  0.78695709  0.55014825  0.07482085  1
  S  S9  1  0.40794840  0.79105216  0.69398683  1
  S  S10  1  0.77060825  0.18232223  0.69029498  1
  S  S11  1  0.66146898  0.05490067  0.19326286  1
  S  S12  1  0.90448701  0.67565894  0.56804001  1
  S  S13  1  0.16505240  0.17112340  0.32513848  1
  S  S14  1  0.27881882  0.29736406  0.81727606  1
