# generated using pymatgen
data_Dy2MgIn
_symmetry_space_group_name_H-M   'P 1'
_cell_length_a   5.27711248
_cell_length_b   5.28123331
_cell_length_c   5.28861094
_cell_angle_alpha   59.68378067
_cell_angle_beta   60.04821014
_cell_angle_gamma   59.65784073
_symmetry_Int_Tables_number   1
_chemical_formula_structural   Dy2MgIn
_chemical_formula_sum   'Dy2 Mg1 In1'
_cell_volume   103.73749012
_cell_formula_units_Z   1
loop_
 _symmetry_equiv_pos_site_id
 _symmetry_equiv_pos_as_xyz
  1  'x, y, z'
loop_
 _atom_site_type_symbol
 _atom_site_label
 _atom_site_symmetry_multiplicity
 _atom_site_fract_x
 _atom_site_fract_y
 _atom_site_fract_z
 _atom_site_occupancy
  Dy  Dy0  1  0.70288998  0.26943651  0.88923395  1
  Dy  Dy1  1  0.20282830  0.76883131  0.38965634  1
  Mg  Mg2  1  0.95283759  0.51905340  0.13936239  1
  In  In3  1  0.45289713  0.01918959  0.63851595  1
