# generated using pymatgen
data_Dy3Ge4
_symmetry_space_group_name_H-M   'P 1'
_cell_length_a   5.15724516
_cell_length_b   7.46555758
_cell_length_c   9.27382088
_cell_angle_alpha   79.44626617
_cell_angle_beta   73.75143433
_cell_angle_gamma   69.63480377
_symmetry_Int_Tables_number   1
_chemical_formula_structural   Dy3Ge4
_chemical_formula_sum   'Dy6 Ge8'
_cell_volume   319.90596586
_cell_formula_units_Z   2
loop_
 _symmetry_equiv_pos_site_id
 _symmetry_equiv_pos_as_xyz
  1  'x, y, z'
loop_
 _atom_site_type_symbol
 _atom_site_label
 _atom_site_symmetry_multiplicity
 _atom_site_fract_x
 _atom_site_fract_y
 _atom_site_fract_z
 _atom_site_occupancy
  Dy  Dy0  1  0.33699378  0.40532225  0.72230935  1
  Dy  Dy1  1  0.83665097  0.90217263  0.22213656  1
  Dy  Dy2  1  0.48084292  0.91904694  0.92001444  1
  Dy  Dy3  1  0.19049351  0.90013236  0.52397996  1
  Dy  Dy4  1  0.98167950  0.41729721  0.41996017  1
  Dy  Dy5  1  0.69114333  0.40042061  0.02368138  1
  Ge  Ge6  1  0.73717719  0.64090991  0.69193399  1
  Ge  Ge7  1  0.23695840  0.14133139  0.19177568  1
  Ge  Ge8  1  0.59577388  0.02511982  0.59415299  1
  Ge  Ge9  1  0.93718594  0.16624710  0.76106256  1
  Ge  Ge10  1  0.43698907  0.66482496  0.26106042  1
  Ge  Ge11  1  0.09531371  0.52495587  0.09437124  1
  Ge  Ge12  1  0.08175032  0.75945073  0.86480242  1
  Ge  Ge13  1  0.58271718  0.25917530  0.36479831  1
