# generated using pymatgen
data_Dy3TmMn8
_symmetry_space_group_name_H-M   'P 1'
_cell_length_a   5.19975233
_cell_length_b   5.22267532
_cell_length_c   8.23621273
_cell_angle_alpha   90.06374359
_cell_angle_beta   89.92580414
_cell_angle_gamma   120.22419739
_symmetry_Int_Tables_number   1
_chemical_formula_structural   Dy3TmMn8
_chemical_formula_sum   'Dy3 Tm1 Mn8'
_cell_volume   193.26262152
_cell_formula_units_Z   1
loop_
 _symmetry_equiv_pos_site_id
 _symmetry_equiv_pos_as_xyz
  1  'x, y, z'
loop_
 _atom_site_type_symbol
 _atom_site_label
 _atom_site_symmetry_multiplicity
 _atom_site_fract_x
 _atom_site_fract_y
 _atom_site_fract_z
 _atom_site_occupancy
  Dy  Dy0  1  0.87657809  0.40934509  0.59691107  1
  Dy  Dy1  1  0.87719482  0.40915161  0.97183412  1
  Dy  Dy2  1  0.54417300  0.74317348  0.47196585  1
  Tm  Tm3  1  0.54428512  0.74352008  0.09682418  1
  Mn  Mn4  1  0.04351892  0.24294560  0.28689313  1
  Mn  Mn5  1  0.37895924  0.41044250  0.78655815  1
  Mn  Mn6  1  0.04452559  0.74445313  0.28644839  1
  Mn  Mn7  1  0.87899971  0.90896034  0.78687376  1
  Mn  Mn8  1  0.54625541  0.24358706  0.28674367  1
  Mn  Mn9  1  0.21046782  0.07550135  0.53609252  1
  Mn  Mn10  1  0.21052276  0.07620385  0.03617326  1
  Mn  Mn11  1  0.37814331  0.90905410  0.78676862  1
