# generated using pymatgen
data_DyCr2Si2C
_symmetry_space_group_name_H-M   'P 1'
_cell_length_a   3.97989297
_cell_length_b   3.94564056
_cell_length_c   5.18093061
_cell_angle_alpha   89.91608429
_cell_angle_beta   90.04997253
_cell_angle_gamma   90.00633240
_symmetry_Int_Tables_number   1
_chemical_formula_structural   DyCr2Si2C
_chemical_formula_sum   'Dy1 Cr2 Si2 C1'
_cell_volume   81.35721154
_cell_formula_units_Z   1
loop_
 _symmetry_equiv_pos_site_id
 _symmetry_equiv_pos_as_xyz
  1  'x, y, z'
loop_
 _atom_site_type_symbol
 _atom_site_label
 _atom_site_symmetry_multiplicity
 _atom_site_fract_x
 _atom_site_fract_y
 _atom_site_fract_z
 _atom_site_occupancy
  Dy  Dy0  1  0.25339261  0.83636147  0.23255603  1
  Cr  Cr1  1  0.25436708  0.33583394  0.73281294  1
  Cr  Cr2  1  0.75453347  0.83639860  0.73250121  1
  Si  Si3  1  0.75404078  0.33703965  0.46192461  1
  Si  Si4  1  0.75411612  0.33638951  0.99997860  1
  C  C5  1  0.25390950  0.83682883  0.73303092  1
