# generated using pymatgen
data_DyErAl2
_symmetry_space_group_name_H-M   'P 1'
_cell_length_a   5.11190224
_cell_length_b   5.11381531
_cell_length_c   5.09600687
_cell_angle_alpha   59.88465881
_cell_angle_beta   60.08368683
_cell_angle_gamma   60.13124847
_symmetry_Int_Tables_number   1
_chemical_formula_structural   DyErAl2
_chemical_formula_sum   'Dy1 Er1 Al2'
_cell_volume   94.26810180
_cell_formula_units_Z   1
loop_
 _symmetry_equiv_pos_site_id
 _symmetry_equiv_pos_as_xyz
  1  'x, y, z'
loop_
 _atom_site_type_symbol
 _atom_site_label
 _atom_site_symmetry_multiplicity
 _atom_site_fract_x
 _atom_site_fract_y
 _atom_site_fract_z
 _atom_site_occupancy
  Dy  Dy0  1  0.64467520  0.90117508  0.47127217  1
  Er  Er1  1  0.14493026  0.40142888  0.97125721  1
  Al  Al2  1  0.89499921  0.15095572  0.72138691  1
  Al  Al3  1  0.39523733  0.65117526  0.22086489  1
