# generated using pymatgen
data_DyGa4Ni
_symmetry_space_group_name_H-M   'P 1'
_cell_length_a   4.20653772
_cell_length_b   6.46744204
_cell_length_c   8.00440788
_cell_angle_alpha   91.07749176
_cell_angle_beta   105.18478394
_cell_angle_gamma   89.82889557
_symmetry_Int_Tables_number   1
_chemical_formula_structural   DyGa4Ni
_chemical_formula_sum   'Dy2 Ga8 Ni2'
_cell_volume   210.12364352
_cell_formula_units_Z   2
loop_
 _symmetry_equiv_pos_site_id
 _symmetry_equiv_pos_as_xyz
  1  'x, y, z'
loop_
 _atom_site_type_symbol
 _atom_site_label
 _atom_site_symmetry_multiplicity
 _atom_site_fract_x
 _atom_site_fract_y
 _atom_site_fract_z
 _atom_site_occupancy
  Dy  Dy0  1  0.27792001  0.60409540  0.38190052  1
  Dy  Dy1  1  0.51782161  0.10358481  0.85738307  1
  Ga  Ga2  1  0.70893800  0.30132875  0.24065310  1
  Ga  Ga3  1  0.08449720  0.41472992  0.99605590  1
  Ga  Ga4  1  0.16246238  0.00929294  0.15173273  1
  Ga  Ga5  1  0.63066012  0.70829809  0.09068472  1
  Ga  Ga6  1  0.32486805  0.10893529  0.47809672  1
  Ga  Ga7  1  0.89795047  0.85359186  0.62038779  1
  Ga  Ga8  1  0.89779705  0.35282695  0.62012136  1
  Ga  Ga9  1  0.46849948  0.60415614  0.76283342  1
  Ni  Ni10  1  0.75077319  0.95385265  0.33266896  1
  Ni  Ni11  1  0.04236677  0.75664133  0.91022140  1
