# generated using pymatgen
data_DyGa6
_symmetry_space_group_name_H-M   'P 1'
_cell_length_a   5.38873529
_cell_length_b   6.66104174
_cell_length_c   7.14708757
_cell_angle_alpha   89.98704529
_cell_angle_beta   89.94022369
_cell_angle_gamma   90.03111267
_symmetry_Int_Tables_number   1
_chemical_formula_structural   DyGa6
_chemical_formula_sum   'Dy2 Ga12'
_cell_volume   256.54159916
_cell_formula_units_Z   2
loop_
 _symmetry_equiv_pos_site_id
 _symmetry_equiv_pos_as_xyz
  1  'x, y, z'
loop_
 _atom_site_type_symbol
 _atom_site_label
 _atom_site_symmetry_multiplicity
 _atom_site_fract_x
 _atom_site_fract_y
 _atom_site_fract_z
 _atom_site_occupancy
  Dy  Dy0  1  0.15494034  0.28628945  0.58330351  1
  Dy  Dy1  1  0.65558535  0.78598130  0.08245743  1
  Ga  Ga2  1  0.41825911  0.28670257  0.08276021  1
  Ga  Ga3  1  0.15561593  0.98230398  0.27280122  1
  Ga  Ga4  1  0.65515983  0.09115296  0.77293187  1
  Ga  Ga5  1  0.40085217  0.78671819  0.58297616  1
  Ga  Ga6  1  0.65499902  0.09104972  0.39130369  1
  Ga  Ga7  1  0.65615863  0.48172742  0.77333343  1
  Ga  Ga8  1  0.90821034  0.78674036  0.58281791  1
  Ga  Ga9  1  0.65553463  0.48061174  0.39067203  1
  Ga  Ga10  1  0.15619679  0.98200107  0.88994586  1
  Ga  Ga11  1  0.15618955  0.59110820  0.27284050  1
  Ga  Ga12  1  0.15606461  0.59069198  0.88961053  1
  Ga  Ga13  1  0.90457344  0.28639787  0.08291764  1
