# generated using pymatgen
data_DyNbO4
_symmetry_space_group_name_H-M   'P 1'
_cell_length_a   5.32170296
_cell_length_b   5.31845903
_cell_length_c   6.65398073
_cell_angle_alpha   112.92804718
_cell_angle_beta   112.65572357
_cell_angle_gamma   90.95761108
_symmetry_Int_Tables_number   1
_chemical_formula_structural   DyNbO4
_chemical_formula_sum   'Dy2 Nb2 O8'
_cell_volume   156.95446927
_cell_formula_units_Z   2
loop_
 _symmetry_equiv_pos_site_id
 _symmetry_equiv_pos_as_xyz
  1  'x, y, z'
loop_
 _atom_site_type_symbol
 _atom_site_label
 _atom_site_symmetry_multiplicity
 _atom_site_fract_x
 _atom_site_fract_y
 _atom_site_fract_z
 _atom_site_occupancy
  Dy  Dy0  1  0.03238948  0.71874279  0.25711188  1
  Dy  Dy1  1  0.78246140  0.96829683  0.75774556  1
  Nb  Nb2  1  0.53278762  0.21846993  0.25731564  1
  Nb  Nb3  1  0.28191748  0.47046405  0.75705731  1
  O  O4  1  0.43901023  0.05339547  0.43186426  1
  O  O5  1  0.19192210  0.31101453  0.08338734  1
  O  O6  1  0.70599109  0.95722157  0.08620656  1
  O  O7  1  0.11736327  0.73709649  0.93460006  1
  O  O8  1  0.01763713  0.13540585  0.58598858  1
  O  O9  1  0.79809695  0.56655681  0.43185359  1
  O  O10  1  0.62109500  0.38242555  0.93344933  1
  O  O11  1  0.36971852  0.64012069  0.58557189  1
