# generated using pymatgen
data_DySi3Ir
_symmetry_space_group_name_H-M   'P 1'
_cell_length_a   4.01260567
_cell_length_b   3.99779320
_cell_length_c   5.91329288
_cell_angle_alpha   110.00251770
_cell_angle_beta   110.08806610
_cell_angle_gamma   89.83544159
_symmetry_Int_Tables_number   1
_chemical_formula_structural   DySi3Ir
_chemical_formula_sum   'Dy1 Si3 Ir1'
_cell_volume   83.00486291
_cell_formula_units_Z   1
loop_
 _symmetry_equiv_pos_site_id
 _symmetry_equiv_pos_as_xyz
  1  'x, y, z'
loop_
 _atom_site_type_symbol
 _atom_site_label
 _atom_site_symmetry_multiplicity
 _atom_site_fract_x
 _atom_site_fract_y
 _atom_site_fract_z
 _atom_site_occupancy
  Dy  Dy0  1  0.15503696  0.64614147  0.89828324  1
  Si  Si1  1  0.53553730  0.02824631  0.66232526  1
  Si  Si2  1  0.76880074  0.26153204  0.13035695  1
  Si  Si3  1  0.40464166  0.39528030  0.39825660  1
  Ir  Ir4  1  0.90504420  0.89677781  0.39906046  1
