# generated using pymatgen
data_DySnRh2
_symmetry_space_group_name_H-M   'P 1'
_cell_length_a   4.71706963
_cell_length_b   4.71593523
_cell_length_c   4.70239878
_cell_angle_alpha   59.57301712
_cell_angle_beta   59.79824448
_cell_angle_gamma   59.78557968
_symmetry_Int_Tables_number   1
_chemical_formula_structural   DySnRh2
_chemical_formula_sum   'Dy1 Sn1 Rh2'
_cell_volume   73.49523345
_cell_formula_units_Z   1
loop_
 _symmetry_equiv_pos_site_id
 _symmetry_equiv_pos_as_xyz
  1  'x, y, z'
loop_
 _atom_site_type_symbol
 _atom_site_label
 _atom_site_symmetry_multiplicity
 _atom_site_fract_x
 _atom_site_fract_y
 _atom_site_fract_z
 _atom_site_occupancy
  Dy  Dy0  1  0.19219960  0.81569558  0.53087312  1
  Sn  Sn1  1  0.69204038  0.31612733  0.03051836  1
  Rh  Rh2  1  0.44206154  0.06561016  0.78032291  1
  Rh  Rh3  1  0.94205183  0.56587309  0.28006661  1
