# generated using pymatgen
data_DyTiO3
_symmetry_space_group_name_H-M   'P 1'
_cell_length_a   5.37730837
_cell_length_b   5.70768738
_cell_length_c   7.68427610
_cell_angle_alpha   89.99476624
_cell_angle_beta   89.90894318
_cell_angle_gamma   90.10625458
_symmetry_Int_Tables_number   1
_chemical_formula_structural   DyTiO3
_chemical_formula_sum   'Dy4 Ti4 O12'
_cell_volume   235.84506012
_cell_formula_units_Z   4
loop_
 _symmetry_equiv_pos_site_id
 _symmetry_equiv_pos_as_xyz
  1  'x, y, z'
loop_
 _atom_site_type_symbol
 _atom_site_label
 _atom_site_symmetry_multiplicity
 _atom_site_fract_x
 _atom_site_fract_y
 _atom_site_fract_z
 _atom_site_occupancy
  Dy  Dy0  1  0.78004670  0.86107600  0.06069472  1
  Dy  Dy1  1  0.28004554  0.50527090  0.56082916  1
  Dy  Dy2  1  0.82314289  0.00660137  0.55983680  1
  Dy  Dy3  1  0.32344702  0.36138928  0.06035575  1
  Ti  Ti4  1  0.30125389  0.93299693  0.81077832  1
  Ti  Ti5  1  0.30095023  0.93343288  0.31082967  1
  Ti  Ti6  1  0.80017525  0.43305334  0.31084815  1
  Ti  Ti7  1  0.80080795  0.43246046  0.81050491  1
  O  O8  1  0.42022392  0.88803256  0.56134069  1
  O  O9  1  0.48970833  0.62723875  0.87039208  1
  O  O10  1  0.10934845  0.23950438  0.36987984  1
  O  O11  1  0.60887182  0.12778813  0.86968398  1
  O  O12  1  0.92015332  0.47824073  0.06085369  1
  O  O13  1  0.60901767  0.12845412  0.25102171  1
  O  O14  1  0.99076623  0.73832351  0.75017321  1
  O  O15  1  0.18276292  0.97787291  0.06067216  1
  O  O16  1  0.10919619  0.23881803  0.75082922  1
  O  O17  1  0.98989952  0.73855436  0.36962196  1
  O  O18  1  0.48991400  0.62713522  0.25084251  1
  O  O19  1  0.68291885  0.38892728  0.56021523  1
