# generated using pymatgen
data_Er2NiOs
_symmetry_space_group_name_H-M   'P 1'
_cell_length_a   4.76579285
_cell_length_b   4.76035452
_cell_length_c   4.76248884
_cell_angle_alpha   59.67827988
_cell_angle_beta   60.04831696
_cell_angle_gamma   60.20536804
_symmetry_Int_Tables_number   1
_chemical_formula_structural   Er2NiOs
_chemical_formula_sum   'Er2 Ni1 Os1'
_cell_volume   76.35732163
_cell_formula_units_Z   1
loop_
 _symmetry_equiv_pos_site_id
 _symmetry_equiv_pos_as_xyz
  1  'x, y, z'
loop_
 _atom_site_type_symbol
 _atom_site_label
 _atom_site_symmetry_multiplicity
 _atom_site_fract_x
 _atom_site_fract_y
 _atom_site_fract_z
 _atom_site_occupancy
  Er  Er0  1  0.15648021  0.36787915  0.58492768  1
  Er  Er1  1  0.65649128  0.86779708  0.08460617  1
  Ni  Ni2  1  0.90653282  0.11822535  0.33475316  1
  Os  Os3  1  0.40652588  0.61789536  0.83461267  1
