# generated using pymatgen
data_Er3(CuGe)4
_symmetry_space_group_name_H-M   'P 1'
_cell_length_a   4.11040115
_cell_length_b   6.71054029
_cell_length_c   8.02135181
_cell_angle_alpha   115.09428406
_cell_angle_beta   104.99657440
_cell_angle_gamma   89.77032471
_symmetry_Int_Tables_number   1
_chemical_formula_structural   Er3(CuGe)4
_chemical_formula_sum   'Er3 Cu4 Ge4'
_cell_volume   192.12586352
_cell_formula_units_Z   1
loop_
 _symmetry_equiv_pos_site_id
 _symmetry_equiv_pos_as_xyz
  1  'x, y, z'
loop_
 _atom_site_type_symbol
 _atom_site_label
 _atom_site_symmetry_multiplicity
 _atom_site_fract_x
 _atom_site_fract_y
 _atom_site_fract_z
 _atom_site_occupancy
  Er  Er0  1  0.68495214  0.15671104  0.22995442  1
  Er  Er1  1  0.55500919  0.52279145  0.97363341  1
  Er  Er2  1  0.81592989  0.78955460  0.49071124  1
  Cu  Cu3  1  0.35230798  0.13976647  0.56582743  1
  Cu  Cu4  1  0.46654660  0.94159538  0.79818743  1
  Cu  Cu5  1  0.01518954  0.79958594  0.89583689  1
  Cu  Cu6  1  0.35231909  0.51564962  0.56559545  1
  Ge  Ge7  1  0.18614081  0.84736001  0.23219419  1
  Ge  Ge8  1  0.01484648  0.16427024  0.88815355  1
  Ge  Ge9  1  0.18625043  0.47513667  0.23581369  1
  Ge  Ge10  1  0.89876628  0.38190246  0.66110617  1
