# generated using pymatgen
data_Er4Ga12Ni
_symmetry_space_group_name_H-M   'P 1'
_cell_length_a   7.40242529
_cell_length_b   7.40441418
_cell_length_c   7.40671873
_cell_angle_alpha   109.62604523
_cell_angle_beta   109.62982178
_cell_angle_gamma   109.50608826
_symmetry_Int_Tables_number   1
_chemical_formula_structural   Er4Ga12Ni
_chemical_formula_sum   'Er4 Ga12 Ni1'
_cell_volume   311.16252969
_cell_formula_units_Z   1
loop_
 _symmetry_equiv_pos_site_id
 _symmetry_equiv_pos_as_xyz
  1  'x, y, z'
loop_
 _atom_site_type_symbol
 _atom_site_label
 _atom_site_symmetry_multiplicity
 _atom_site_fract_x
 _atom_site_fract_y
 _atom_site_fract_z
 _atom_site_occupancy
  Er  Er0  1  0.55296451  0.51264530  0.84939051  1
  Er  Er1  1  0.05272726  0.51266414  0.34876585  1
  Er  Er2  1  0.05283235  0.01298254  0.84863526  1
  Er  Er3  1  0.55350429  0.01310004  0.34879619  1
  Ga  Ga4  1  0.05232639  0.22160792  0.55945069  1
  Ga  Ga5  1  0.55288541  0.76416874  0.59899515  1
  Ga  Ga6  1  0.30303502  0.01257010  0.59824336  1
  Ga  Ga7  1  0.80320686  0.01214185  0.09983272  1
  Ga  Ga8  1  0.76735586  0.51220673  0.55969995  1
  Ga  Ga9  1  0.55296642  0.26483217  0.09907308  1
  Ga  Ga10  1  0.05217550  0.80207419  0.13374764  1
  Ga  Ga11  1  0.34183690  0.80196303  0.84927350  1
  Ga  Ga12  1  0.34330243  0.51248735  0.13425183  1
  Ga  Ga13  1  0.30272126  0.26437148  0.34958881  1
  Ga  Ga14  1  0.80376673  0.76366007  0.34815690  1
  Ga  Ga15  1  0.76722306  0.22201651  0.84893405  1
  Ni  Ni16  1  0.05263905  0.51266474  0.84788501  1
