# generated using pymatgen
data_Er5(NiTe)2
_symmetry_space_group_name_H-M   'P 1'
_cell_length_a   3.95395446
_cell_length_b   7.77435350
_cell_length_c   15.03794861
_cell_angle_alpha   93.18729401
_cell_angle_beta   90.10280609
_cell_angle_gamma   104.50288391
_symmetry_Int_Tables_number   1
_chemical_formula_structural   Er5(NiTe)2
_chemical_formula_sum   'Er10 Ni4 Te4'
_cell_volume   446.77692574
_cell_formula_units_Z   2
loop_
 _symmetry_equiv_pos_site_id
 _symmetry_equiv_pos_as_xyz
  1  'x, y, z'
loop_
 _atom_site_type_symbol
 _atom_site_label
 _atom_site_symmetry_multiplicity
 _atom_site_fract_x
 _atom_site_fract_y
 _atom_site_fract_z
 _atom_site_occupancy
  Er  Er0  1  0.29183009  0.74981272  0.75258446  1
  Er  Er1  1  0.19810614  0.56324333  0.03769889  1
  Er  Er2  1  0.49856871  0.17114547  0.31508344  1
  Er  Er3  1  0.15634152  0.47881031  0.45069221  1
  Er  Er4  1  0.40437764  0.97287357  0.95210004  1
  Er  Er5  1  0.04757954  0.25776580  0.64085364  1
  Er  Er6  1  0.88997793  0.94906574  0.13920252  1
  Er  Er7  1  0.70133024  0.56736290  0.24994922  1
  Er  Er8  1  0.62171298  0.40663102  0.83630139  1
  Er  Er9  1  0.87928599  0.92217433  0.47513545  1
  Ni  Ni10  1  0.77684891  0.71988559  0.93823516  1
  Ni  Ni11  1  0.41291299  0.98671150  0.61059391  1
  Ni  Ni12  1  0.07850473  0.32180053  0.21469320  1
  Ni  Ni13  1  0.53032690  0.22161987  0.50288218  1
  Te  Te14  1  0.95352727  0.07139455  0.81062281  1
  Te  Te15  1  0.71867347  0.60268867  0.61098856  1
  Te  Te16  1  0.32510665  0.81233227  0.30951631  1
  Te  Te17  1  0.55775094  0.27737132  0.09139393  1
