# generated using pymatgen
data_ErAl4Ni
_symmetry_space_group_name_H-M   'P 1'
_cell_length_a   4.22078228
_cell_length_b   6.51878595
_cell_length_c   7.96386576
_cell_angle_alpha   102.91034698
_cell_angle_beta   105.21460724
_cell_angle_gamma   89.79821777
_symmetry_Int_Tables_number   1
_chemical_formula_structural   ErAl4Ni
_chemical_formula_sum   'Er2 Al8 Ni2'
_cell_volume   205.74137564
_cell_formula_units_Z   2
loop_
 _symmetry_equiv_pos_site_id
 _symmetry_equiv_pos_as_xyz
  1  'x, y, z'
loop_
 _atom_site_type_symbol
 _atom_site_label
 _atom_site_symmetry_multiplicity
 _atom_site_fract_x
 _atom_site_fract_y
 _atom_site_fract_z
 _atom_site_occupancy
  Er  Er0  1  0.57827771  0.65716016  0.77634317  1
  Er  Er1  1  0.33140329  0.31677613  0.28323436  1
  Al  Al2  1  0.86691773  0.00348698  0.34900928  1
  Al  Al3  1  0.76508617  0.60429591  0.15283765  1
  Al  Al4  1  0.14653826  0.40136579  0.91531366  1
  Al  Al5  1  0.68787599  0.13210447  0.99187630  1
  Al  Al6  1  0.22558667  0.85943878  0.07610352  1
  Al  Al7  1  0.49605471  0.15249200  0.61454660  1
  Al  Al8  1  0.06119154  0.98538178  0.73932791  1
  Al  Al9  1  0.93433583  0.63072932  0.48562741  1
  Ni  Ni10  1  0.38274384  0.80808002  0.38597053  1
  Ni  Ni11  1  0.99357849  0.31352609  0.60369676  1
