# generated using pymatgen
data_ErAsPd
_symmetry_space_group_name_H-M   'P 1'
_cell_length_a   4.15064812
_cell_length_b   7.04946423
_cell_length_c   7.91619205
_cell_angle_alpha   89.88360596
_cell_angle_beta   89.90535736
_cell_angle_gamma   89.93572998
_symmetry_Int_Tables_number   1
_chemical_formula_structural   ErAsPd
_chemical_formula_sum   'Er4 As4 Pd4'
_cell_volume   231.62561700
_cell_formula_units_Z   4
loop_
 _symmetry_equiv_pos_site_id
 _symmetry_equiv_pos_as_xyz
  1  'x, y, z'
loop_
 _atom_site_type_symbol
 _atom_site_label
 _atom_site_symmetry_multiplicity
 _atom_site_fract_x
 _atom_site_fract_y
 _atom_site_fract_z
 _atom_site_occupancy
  Er  Er0  1  0.13251545  0.17782137  0.45514834  1
  Er  Er1  1  0.13323817  0.67751849  0.57687265  1
  Er  Er2  1  0.63311076  0.73993367  0.95433116  1
  Er  Er3  1  0.63290226  0.23923029  0.07731608  1
  As  As4  1  0.63334459  0.45860904  0.38911867  1
  As  As5  1  0.63329369  0.95899677  0.64208746  1
  As  As6  1  0.13328913  0.95795459  0.14231977  1
  As  As7  1  0.13321297  0.45806533  0.88911664  1
  Pd  Pd8  1  0.63304192  0.35063753  0.70315081  1
  Pd  Pd9  1  0.13310607  0.06521436  0.82759094  1
  Pd  Pd10  1  0.63329607  0.85222077  0.32779452  1
  Pd  Pd11  1  0.13319224  0.56485790  0.20302290  1
