# generated using pymatgen
data_ErAsPt
_symmetry_space_group_name_H-M   'P 1'
_cell_length_a   4.29360294
_cell_length_b   4.27057743
_cell_length_c   15.14600563
_cell_angle_alpha   89.99268341
_cell_angle_beta   90.06758881
_cell_angle_gamma   120.31631470
_symmetry_Int_Tables_number   1
_chemical_formula_structural   ErAsPt
_chemical_formula_sum   'Er4 As4 Pt4'
_cell_volume   239.74179255
_cell_formula_units_Z   4
loop_
 _symmetry_equiv_pos_site_id
 _symmetry_equiv_pos_as_xyz
  1  'x, y, z'
loop_
 _atom_site_type_symbol
 _atom_site_label
 _atom_site_symmetry_multiplicity
 _atom_site_fract_x
 _atom_site_fract_y
 _atom_site_fract_z
 _atom_site_occupancy
  Er  Er0  1  0.04615249  0.54110956  0.63550204  1
  Er  Er1  1  0.04603944  0.54111212  0.88497287  1
  Er  Er2  1  0.04595069  0.54095298  0.38506413  1
  Er  Er3  1  0.04619925  0.54090708  0.13479397  1
  As  As4  1  0.71284950  0.87405270  0.26334909  1
  As  As5  1  0.71243227  0.87443149  0.76134425  1
  As  As6  1  0.37950340  0.20778474  0.50893933  1
  As  As7  1  0.37945336  0.20750374  0.00896005  1
  Pt  Pt8  1  0.37973678  0.20715645  0.25238276  1
  Pt  Pt9  1  0.37952185  0.20724052  0.75352615  1
  Pt  Pt10  1  0.71294308  0.87399828  0.00819142  1
  Pt  Pt11  1  0.71289647  0.87429023  0.50776440  1
