# generated using pymatgen
data_ErMgTl
_symmetry_space_group_name_H-M   'P 1'
_cell_length_a   4.71213198
_cell_length_b   7.17330790
_cell_length_c   7.23992348
_cell_angle_alpha   100.84082031
_cell_angle_beta   89.85381317
_cell_angle_gamma   90.04959869
_symmetry_Int_Tables_number   1
_chemical_formula_structural   ErMgTl
_chemical_formula_sum   'Er3 Mg3 Tl3'
_cell_volume   240.35259539
_cell_formula_units_Z   3
loop_
 _symmetry_equiv_pos_site_id
 _symmetry_equiv_pos_as_xyz
  1  'x, y, z'
loop_
 _atom_site_type_symbol
 _atom_site_label
 _atom_site_symmetry_multiplicity
 _atom_site_fract_x
 _atom_site_fract_y
 _atom_site_fract_z
 _atom_site_occupancy
  Er  Er0  1  0.09871431  0.81670880  0.28000665  1
  Er  Er1  1  0.09900149  0.38623744  0.89009130  1
  Er  Er2  1  0.59876615  0.09907098  0.59850127  1
  Mg  Mg3  1  0.59888595  0.78259742  0.91547340  1
  Mg  Mg4  1  0.59904665  0.57046139  0.55633223  1
  Mg  Mg5  1  0.59860581  0.14192690  0.15491982  1
  Tl  Tl6  1  0.59851366  0.54268831  0.15343212  1
  Tl  Tl7  1  0.09900771  0.84813207  0.71904957  1
  Tl  Tl8  1  0.09894404  0.29727522  0.39603096  1
