# generated using pymatgen
data_ErNiSn4
_symmetry_space_group_name_H-M   'P 1'
_cell_length_a   4.54346895
_cell_length_b   4.61591530
_cell_length_c   13.80760574
_cell_angle_alpha   89.83403778
_cell_angle_beta   99.53054810
_cell_angle_gamma   90.15962982
_symmetry_Int_Tables_number   1
_chemical_formula_structural   ErNiSn4
_chemical_formula_sum   'Er2 Ni2 Sn8'
_cell_volume   285.57793252
_cell_formula_units_Z   2
loop_
 _symmetry_equiv_pos_site_id
 _symmetry_equiv_pos_as_xyz
  1  'x, y, z'
loop_
 _atom_site_type_symbol
 _atom_site_label
 _atom_site_symmetry_multiplicity
 _atom_site_fract_x
 _atom_site_fract_y
 _atom_site_fract_z
 _atom_site_occupancy
  Er  Er0  1  0.91393048  0.38106802  0.33063507  1
  Er  Er1  1  0.79475862  0.88109708  0.09009960  1
  Ni  Ni2  1  0.61869729  0.38155892  0.74525326  1
  Ni  Ni3  1  0.23901021  0.38017994  0.98682380  1
  Sn  Sn4  1  0.59195900  0.87957358  0.68265563  1
  Sn  Sn5  1  0.39713988  0.88037354  0.30048224  1
  Sn  Sn6  1  0.09086445  0.38023192  0.68288338  1
  Sn  Sn7  1  0.32688081  0.38038027  0.15675220  1
  Sn  Sn8  1  0.70974964  0.38096529  0.91554582  1
  Sn  Sn9  1  0.99814850  0.88062000  0.50379354  1
  Sn  Sn10  1  0.49937925  0.38084641  0.50333726  1
  Sn  Sn11  1  0.20004916  0.88007289  0.89741975  1
