# generated using pymatgen
data_ErPt
_symmetry_space_group_name_H-M   'P 1'
_cell_length_a   4.55451536
_cell_length_b   5.55381870
_cell_length_c   6.84471321
_cell_angle_alpha   89.87894440
_cell_angle_beta   89.87584686
_cell_angle_gamma   90.04632568
_symmetry_Int_Tables_number   1
_chemical_formula_structural   ErPt
_chemical_formula_sum   'Er4 Pt4'
_cell_volume   173.13584607
_cell_formula_units_Z   4
loop_
 _symmetry_equiv_pos_site_id
 _symmetry_equiv_pos_as_xyz
  1  'x, y, z'
loop_
 _atom_site_type_symbol
 _atom_site_label
 _atom_site_symmetry_multiplicity
 _atom_site_fract_x
 _atom_site_fract_y
 _atom_site_fract_z
 _atom_site_occupancy
  Er  Er0  1  0.72457784  0.95199609  0.75382459  1
  Er  Er1  1  0.22421362  0.45192263  0.89583665  1
  Er  Er2  1  0.22476104  0.23938827  0.39558497  1
  Er  Er3  1  0.72472107  0.73846418  0.25329107  1
  Pt  Pt4  1  0.72476703  0.24920131  0.11747132  1
  Pt  Pt5  1  0.22479247  0.74981600  0.53060228  1
  Pt  Pt6  1  0.22480039  0.94100779  0.03061381  1
  Pt  Pt7  1  0.72475505  0.44077086  0.61792594  1
