# generated using pymatgen
data_ErSbRh2
_symmetry_space_group_name_H-M   'P 1'
_cell_length_a   4.71080685
_cell_length_b   4.71757269
_cell_length_c   4.69902611
_cell_angle_alpha   60.07034302
_cell_angle_beta   59.83938599
_cell_angle_gamma   60.11538315
_symmetry_Int_Tables_number   1
_chemical_formula_structural   ErSbRh2
_chemical_formula_sum   'Er1 Sb1 Rh2'
_cell_volume   73.85559108
_cell_formula_units_Z   1
loop_
 _symmetry_equiv_pos_site_id
 _symmetry_equiv_pos_as_xyz
  1  'x, y, z'
loop_
 _atom_site_type_symbol
 _atom_site_label
 _atom_site_symmetry_multiplicity
 _atom_site_fract_x
 _atom_site_fract_y
 _atom_site_fract_z
 _atom_site_occupancy
  Er  Er0  1  0.33684313  0.94321853  0.98426759  1
  Sb  Sb1  1  0.83663064  0.44321516  0.48399943  1
  Rh  Rh2  1  0.08664301  0.69340754  0.73416722  1
  Rh  Rh3  1  0.58685857  0.19329812  0.23395897  1
