# generated using pymatgen
data_ErScRu2
_symmetry_space_group_name_H-M   'P 1'
_cell_length_a   4.67291021
_cell_length_b   4.66306639
_cell_length_c   4.67665720
_cell_angle_alpha   59.79758072
_cell_angle_beta   59.86946106
_cell_angle_gamma   60.04911804
_symmetry_Int_Tables_number   1
_chemical_formula_structural   ErScRu2
_chemical_formula_sum   'Er1 Sc1 Ru2'
_cell_volume   71.90216149
_cell_formula_units_Z   1
loop_
 _symmetry_equiv_pos_site_id
 _symmetry_equiv_pos_as_xyz
  1  'x, y, z'
loop_
 _atom_site_type_symbol
 _atom_site_label
 _atom_site_symmetry_multiplicity
 _atom_site_fract_x
 _atom_site_fract_y
 _atom_site_fract_z
 _atom_site_occupancy
  Er  Er0  1  0.23600920  0.02795024  0.37701970  1
  Sc  Sc1  1  0.73577172  0.52806395  0.87698019  1
  Ru  Ru2  1  0.98554349  0.77795178  0.12668623  1
  Ru  Ru3  1  0.48565376  0.27814105  0.62679106  1
