# generated using pymatgen
data_ErSi2Ni
_symmetry_space_group_name_H-M   'P 1'
_cell_length_a   3.89032388
_cell_length_b   3.89349174
_cell_length_c   8.90042305
_cell_angle_alpha   89.85362244
_cell_angle_beta   89.83030701
_cell_angle_gamma   90.06616974
_symmetry_Int_Tables_number   1
_chemical_formula_structural   ErSi2Ni
_chemical_formula_sum   'Er2 Si4 Ni2'
_cell_volume   134.81308633
_cell_formula_units_Z   2
loop_
 _symmetry_equiv_pos_site_id
 _symmetry_equiv_pos_as_xyz
  1  'x, y, z'
loop_
 _atom_site_type_symbol
 _atom_site_label
 _atom_site_symmetry_multiplicity
 _atom_site_fract_x
 _atom_site_fract_y
 _atom_site_fract_z
 _atom_site_occupancy
  Er  Er0  1  0.01424853  0.02383423  0.75707912  1
  Er  Er1  1  0.51497215  0.52346098  0.24502444  1
  Si  Si2  1  0.01493218  0.52437574  0.50012398  1
  Si  Si3  1  0.51460141  0.02417904  0.50024951  1
  Si  Si4  1  0.01429574  0.52432460  0.00095874  1
  Si  Si5  1  0.51454639  0.02431165  0.00069078  1
  Ni  Ni6  1  0.51472676  0.52401006  0.64079040  1
  Ni  Ni7  1  0.01443351  0.02365069  0.36157569  1
