# generated using pymatgen
data_ErThCN
_symmetry_space_group_name_H-M   'P 1'
_cell_length_a   3.59945536
_cell_length_b   3.59038091
_cell_length_c   6.25634336
_cell_angle_alpha   72.91204071
_cell_angle_beta   73.01686096
_cell_angle_gamma   59.95571136
_symmetry_Int_Tables_number   1
_chemical_formula_structural   ErThCN
_chemical_formula_sum   'Er1 Th1 C1 N1'
_cell_volume   65.86516927
_cell_formula_units_Z   1
loop_
 _symmetry_equiv_pos_site_id
 _symmetry_equiv_pos_as_xyz
  1  'x, y, z'
loop_
 _atom_site_type_symbol
 _atom_site_label
 _atom_site_symmetry_multiplicity
 _atom_site_fract_x
 _atom_site_fract_y
 _atom_site_fract_z
 _atom_site_occupancy
  Er  Er0  1  0.70164251  0.77144086  0.25165066  1
  Th  Th1  1  0.20211063  0.27026492  0.75271541  1
  C  C2  1  0.44509846  0.51388240  0.01630362  1
  N  N3  1  0.95672792  0.02553781  0.48547295  1
