# generated using pymatgen
data_ErTm3
_symmetry_space_group_name_H-M   'P 1'
_cell_length_a   5.47631121
_cell_length_b   7.21901703
_cell_length_c   7.19444132
_cell_angle_alpha   59.83489227
_cell_angle_beta   89.54647064
_cell_angle_gamma   89.95210266
_symmetry_Int_Tables_number   1
_chemical_formula_structural   ErTm3
_chemical_formula_sum   'Er2 Tm6'
_cell_volume   245.89656496
_cell_formula_units_Z   2
loop_
 _symmetry_equiv_pos_site_id
 _symmetry_equiv_pos_as_xyz
  1  'x, y, z'
loop_
 _atom_site_type_symbol
 _atom_site_label
 _atom_site_symmetry_multiplicity
 _atom_site_fract_x
 _atom_site_fract_y
 _atom_site_fract_z
 _atom_site_occupancy
  Er  Er0  1  0.49077025  0.07154223  0.61904949  1
  Er  Er1  1  0.49080551  0.57107621  0.61969793  1
  Tm  Tm2  1  0.99065787  0.23891699  0.78475589  1
  Tm  Tm3  1  0.99063897  0.73831385  0.28502649  1
  Tm  Tm4  1  0.49105415  0.07118367  0.11877864  1
  Tm  Tm5  1  0.49079692  0.57127595  0.11908405  1
  Tm  Tm6  1  0.99086666  0.73876673  0.78493398  1
  Tm  Tm7  1  0.99075341  0.23890716  0.28443694  1
