# generated using pymatgen
data_ErZnRh
_symmetry_space_group_name_H-M   'P 1'
_cell_length_a   4.39578867
_cell_length_b   7.23493338
_cell_length_c   7.25979757
_cell_angle_alpha   89.91801453
_cell_angle_beta   89.89703369
_cell_angle_gamma   90.00939178
_symmetry_Int_Tables_number   1
_chemical_formula_structural   ErZnRh
_chemical_formula_sum   'Er4 Zn4 Rh4'
_cell_volume   230.88445882
_cell_formula_units_Z   4
loop_
 _symmetry_equiv_pos_site_id
 _symmetry_equiv_pos_as_xyz
  1  'x, y, z'
loop_
 _atom_site_type_symbol
 _atom_site_label
 _atom_site_symmetry_multiplicity
 _atom_site_fract_x
 _atom_site_fract_y
 _atom_site_fract_z
 _atom_site_occupancy
  Er  Er0  1  0.27765140  0.25472587  0.37813774  1
  Er  Er1  1  0.77741444  0.75413209  0.86496282  1
  Er  Er2  1  0.77741617  0.64398897  0.36523145  1
  Er  Er3  1  0.27774975  0.14441384  0.87866485  1
  Zn  Zn4  1  0.27731073  0.85555387  0.55918437  1
  Zn  Zn5  1  0.77752781  0.35579944  0.68293411  1
  Zn  Zn6  1  0.77781016  0.04030227  0.18229869  1
  Zn  Zn7  1  0.27717116  0.53950262  0.05830263  1
  Rh  Rh8  1  0.77707636  0.02685211  0.55888492  1
  Rh  Rh9  1  0.27767450  0.86938322  0.18070860  1
  Rh  Rh10  1  0.27764869  0.52506363  0.68086767  1
  Rh  Rh11  1  0.77722609  0.37050709  0.05766991  1
