# generated using pymatgen
data_Eu(NiGe)2
_symmetry_space_group_name_H-M   'P 1'
_cell_length_a   4.08949518
_cell_length_b   4.07377577
_cell_length_c   5.77938747
_cell_angle_alpha   110.75835419
_cell_angle_beta   110.51104736
_cell_angle_gamma   90.22129822
_symmetry_Int_Tables_number   1
_chemical_formula_structural   Eu(NiGe)2
_chemical_formula_sum   'Eu1 Ni2 Ge2'
_cell_volume   83.41864191
_cell_formula_units_Z   1
loop_
 _symmetry_equiv_pos_site_id
 _symmetry_equiv_pos_as_xyz
  1  'x, y, z'
loop_
 _atom_site_type_symbol
 _atom_site_label
 _atom_site_symmetry_multiplicity
 _atom_site_fract_x
 _atom_site_fract_y
 _atom_site_fract_z
 _atom_site_occupancy
  Eu  Eu0  1  0.48350805  0.00108299  0.25772077  1
  Ni  Ni1  1  0.73294544  0.75051296  0.75734657  1
  Ni  Ni2  1  0.23336062  0.25100622  0.75696301  1
  Ge  Ge3  1  0.84886950  0.36752668  0.99321759  1
  Ge  Ge4  1  0.11290862  0.63179410  0.51913023  1
