# generated using pymatgen
data_Eu(SiRh)2
_symmetry_space_group_name_H-M   'P 1'
_cell_length_a   4.09613752
_cell_length_b   4.07522202
_cell_length_c   5.89339590
_cell_angle_alpha   110.28356934
_cell_angle_beta   110.26177216
_cell_angle_gamma   89.87623596
_symmetry_Int_Tables_number   1
_chemical_formula_structural   Eu(SiRh)2
_chemical_formula_sum   'Eu1 Si2 Rh2'
_cell_volume   85.78554326
_cell_formula_units_Z   1
loop_
 _symmetry_equiv_pos_site_id
 _symmetry_equiv_pos_as_xyz
  1  'x, y, z'
loop_
 _atom_site_type_symbol
 _atom_site_label
 _atom_site_symmetry_multiplicity
 _atom_site_fract_x
 _atom_site_fract_y
 _atom_site_fract_z
 _atom_site_occupancy
  Eu  Eu0  1  0.39064148  0.55144125  0.15779515  1
  Si  Si1  1  0.01468219  0.17499025  0.40493596  1
  Si  Si2  1  0.76600796  0.92664063  0.90876520  1
  Rh  Rh3  1  0.64057791  0.30115241  0.65742671  1
  Rh  Rh4  1  0.14055312  0.80124849  0.65727991  1
