# generated using pymatgen
data_Eu2CuIr
_symmetry_space_group_name_H-M   'P 1'
_cell_length_a   5.00398397
_cell_length_b   5.01357174
_cell_length_c   4.98548222
_cell_angle_alpha   60.07925034
_cell_angle_beta   60.08826447
_cell_angle_gamma   60.13652039
_symmetry_Int_Tables_number   1
_chemical_formula_structural   Eu2CuIr
_chemical_formula_sum   'Eu2 Cu1 Ir1'
_cell_volume   88.64437511
_cell_formula_units_Z   1
loop_
 _symmetry_equiv_pos_site_id
 _symmetry_equiv_pos_as_xyz
  1  'x, y, z'
loop_
 _atom_site_type_symbol
 _atom_site_label
 _atom_site_symmetry_multiplicity
 _atom_site_fract_x
 _atom_site_fract_y
 _atom_site_fract_z
 _atom_site_occupancy
  Eu  Eu0  1  0.20820011  0.01214572  0.55819798  1
  Eu  Eu1  1  0.70866710  0.51230699  0.05817071  1
  Cu  Cu2  1  0.95875448  0.76243895  0.30799308  1
  Ir  Ir3  1  0.45891950  0.26243684  0.80834603  1
