# generated using pymatgen
data_Eu2MnRhO6
_symmetry_space_group_name_H-M   'P 1'
_cell_length_a   5.47364807
_cell_length_b   5.75891304
_cell_length_c   7.82660818
_cell_angle_alpha   89.84393311
_cell_angle_beta   89.99081421
_cell_angle_gamma   89.99774933
_symmetry_Int_Tables_number   1
_chemical_formula_structural   Eu2MnRhO6
_chemical_formula_sum   'Eu4 Mn2 Rh2 O12'
_cell_volume   246.71148487
_cell_formula_units_Z   2
loop_
 _symmetry_equiv_pos_site_id
 _symmetry_equiv_pos_as_xyz
  1  'x, y, z'
loop_
 _atom_site_type_symbol
 _atom_site_label
 _atom_site_symmetry_multiplicity
 _atom_site_fract_x
 _atom_site_fract_y
 _atom_site_fract_z
 _atom_site_occupancy
  Eu  Eu0  1  0.43941915  0.80089068  0.88327998  1
  Eu  Eu1  1  0.40673721  0.92709750  0.38116604  1
  Eu  Eu2  1  0.90660936  0.30080310  0.88420331  1
  Eu  Eu3  1  0.93909109  0.42785534  0.38024157  1
  Mn  Mn4  1  0.92505646  0.86423355  0.13241850  1
  Mn  Mn5  1  0.42503494  0.36426854  0.13254037  1
  Rh  Rh6  1  0.92507631  0.86445993  0.63209325  1
  Rh  Rh7  1  0.42475405  0.36386144  0.63298094  1
  O  O8  1  0.02318141  0.89245117  0.88378513  1
  O  O9  1  0.32672691  0.39293593  0.88503879  1
  O  O10  1  0.62052369  0.06437764  0.08098783  1
  O  O11  1  0.22679479  0.66436094  0.18392979  1
  O  O12  1  0.72637421  0.56556231  0.68353081  1
  O  O13  1  0.82690591  0.83516747  0.38198164  1
  O  O14  1  0.72678024  0.56735522  0.07999046  1
  O  O15  1  0.12197211  0.16310291  0.18377438  1
  O  O16  1  0.22690405  0.66359729  0.57923889  1
  O  O17  1  0.62138242  0.06646613  0.68380284  1
  O  O18  1  0.52274930  0.33563709  0.38024470  1
  O  O19  1  0.12140868  0.16370392  0.58059651  1
