# generated using pymatgen
data_Eu2NiWO6
_symmetry_space_group_name_H-M   'P 1'
_cell_length_a   5.68601608
_cell_length_b   5.68066549
_cell_length_c   5.67576551
_cell_angle_alpha   59.74186325
_cell_angle_beta   59.71108246
_cell_angle_gamma   59.75768661
_symmetry_Int_Tables_number   1
_chemical_formula_structural   Eu2NiWO6
_chemical_formula_sum   'Eu2 Ni1 W1 O6'
_cell_volume   128.85868990
_cell_formula_units_Z   1
loop_
 _symmetry_equiv_pos_site_id
 _symmetry_equiv_pos_as_xyz
  1  'x, y, z'
loop_
 _atom_site_type_symbol
 _atom_site_label
 _atom_site_symmetry_multiplicity
 _atom_site_fract_x
 _atom_site_fract_y
 _atom_site_fract_z
 _atom_site_occupancy
  Eu  Eu0  1  0.50585073  0.41272855  0.87244689  1
  Eu  Eu1  1  0.00522993  0.91303605  0.37207776  1
  Ni  Ni2  1  0.25559291  0.16347836  0.62195605  1
  W  W3  1  0.75600767  0.66391885  0.12165934  1
  O  O4  1  0.51392949  0.90510988  0.87892628  1
  O  O5  1  0.99772006  0.42164648  0.36379960  1
  O  O6  1  0.99727106  0.90495837  0.87937015  1
  O  O7  1  0.51475656  0.42171103  0.36373627  1
  O  O8  1  0.99670130  0.42174616  0.87922382  1
  O  O9  1  0.51427495  0.90540731  0.36430916  1
