# generated using pymatgen
data_Eu2PCl
_symmetry_space_group_name_H-M   'P 1'
_cell_length_a   4.19251299
_cell_length_b   4.19435978
_cell_length_c   7.45386600
_cell_angle_alpha   73.71185303
_cell_angle_beta   73.64356232
_cell_angle_gamma   59.89738464
_symmetry_Int_Tables_number   1
_chemical_formula_structural   Eu2PCl
_chemical_formula_sum   'Eu2 P1 Cl1'
_cell_volume   107.26655680
_cell_formula_units_Z   1
loop_
 _symmetry_equiv_pos_site_id
 _symmetry_equiv_pos_as_xyz
  1  'x, y, z'
loop_
 _atom_site_type_symbol
 _atom_site_label
 _atom_site_symmetry_multiplicity
 _atom_site_fract_x
 _atom_site_fract_y
 _atom_site_fract_z
 _atom_site_occupancy
  Eu  Eu0  1  0.51299441  0.01315182  0.03845088  1
  Eu  Eu1  1  0.03055948  0.52784228  0.48886389  1
  P  P2  1  0.77079147  0.27191007  0.26364720  1
  Cl  Cl3  1  0.27153593  0.77213788  0.76382399  1
