# generated using pymatgen
data_Eu2Si4IrPd3
_symmetry_space_group_name_H-M   'P 1'
_cell_length_a   4.24071503
_cell_length_b   4.27345419
_cell_length_c   10.95624065
_cell_angle_alpha   100.96803284
_cell_angle_beta   100.86585236
_cell_angle_gamma   90.46283722
_symmetry_Int_Tables_number   1
_chemical_formula_structural   Eu2Si4IrPd3
_chemical_formula_sum   'Eu2 Si4 Ir1 Pd3'
_cell_volume   191.23382986
_cell_formula_units_Z   1
loop_
 _symmetry_equiv_pos_site_id
 _symmetry_equiv_pos_as_xyz
  1  'x, y, z'
loop_
 _atom_site_type_symbol
 _atom_site_label
 _atom_site_symmetry_multiplicity
 _atom_site_fract_x
 _atom_site_fract_y
 _atom_site_fract_z
 _atom_site_occupancy
  Eu  Eu0  1  0.07243348  0.49133146  0.07285632  1
  Eu  Eu1  1  0.78225857  0.19978537  0.49498692  1
  Si  Si2  1  0.90256566  0.32268074  0.74321407  1
  Si  Si3  1  0.67772758  0.59433079  0.28781018  1
  Si  Si4  1  0.36404422  0.78229356  0.66377974  1
  Si  Si5  1  0.50723821  0.92581648  0.94616735  1
  Ir  Ir6  1  0.44589686  0.36715907  0.82688403  1
  Pd  Pd7  1  0.94458997  0.86409140  0.82160711  1
  Pd  Pd8  1  0.24402210  0.65846580  0.41483212  1
  Pd  Pd9  1  0.62694424  0.04200551  0.18269037  1
