# generated using pymatgen
data_Eu2ZnSb2
_symmetry_space_group_name_H-M   'P 1'
_cell_length_a   4.63755369
_cell_length_b   4.64702415
_cell_length_c   8.18041515
_cell_angle_alpha   89.98867035
_cell_angle_beta   89.89115143
_cell_angle_gamma   119.67095947
_symmetry_Int_Tables_number   1
_chemical_formula_structural   Eu2ZnSb2
_chemical_formula_sum   'Eu2 Zn1 Sb2'
_cell_volume   153.17896575
_cell_formula_units_Z   1
loop_
 _symmetry_equiv_pos_site_id
 _symmetry_equiv_pos_as_xyz
  1  'x, y, z'
loop_
 _atom_site_type_symbol
 _atom_site_label
 _atom_site_symmetry_multiplicity
 _atom_site_fract_x
 _atom_site_fract_y
 _atom_site_fract_z
 _atom_site_occupancy
  Eu  Eu0  1  0.54732925  0.97718406  0.27753180  1
  Eu  Eu1  1  0.54748034  0.97709978  0.80427557  1
  Zn  Zn2  1  0.21325783  0.31006914  0.53957707  1
  Sb  Sb3  1  0.87986666  0.64436972  0.53939044  1
  Sb  Sb4  1  0.21324465  0.31116405  0.04028704  1
