# generated using pymatgen
data_Eu3Ga2
_symmetry_space_group_name_H-M   'P 1'
_cell_length_a   4.96453094
_cell_length_b   6.65957928
_cell_length_c   8.96493149
_cell_angle_alpha   89.99400330
_cell_angle_beta   89.92938995
_cell_angle_gamma   89.97241211
_symmetry_Int_Tables_number   1
_chemical_formula_structural   Eu3Ga2
_chemical_formula_sum   'Eu6 Ga4'
_cell_volume   296.39550138
_cell_formula_units_Z   2
loop_
 _symmetry_equiv_pos_site_id
 _symmetry_equiv_pos_as_xyz
  1  'x, y, z'
loop_
 _atom_site_type_symbol
 _atom_site_label
 _atom_site_symmetry_multiplicity
 _atom_site_fract_x
 _atom_site_fract_y
 _atom_site_fract_z
 _atom_site_occupancy
  Eu  Eu0  1  0.25560191  0.13156196  0.76896143  1
  Eu  Eu1  1  0.75541037  0.63280481  0.26667842  1
  Eu  Eu2  1  0.75553590  0.13234723  0.47245863  1
  Eu  Eu3  1  0.25556102  0.63217986  0.97132874  1
  Eu  Eu4  1  0.75544381  0.13196829  0.06333135  1
  Eu  Eu5  1  0.25553259  0.63183445  0.56368434  1
  Ga  Ga6  1  0.75499213  0.43091065  0.76837873  1
  Ga  Ga7  1  0.25508997  0.32934481  0.26829958  1
  Ga  Ga8  1  0.75535166  0.82844859  0.76841760  1
  Ga  Ga9  1  0.25519392  0.93075186  0.26835132  1
