# generated using pymatgen
data_EuBrO
_symmetry_space_group_name_H-M   'P 1'
_cell_length_a   4.05946779
_cell_length_b   4.07012129
_cell_length_c   7.65677309
_cell_angle_alpha   90.01200867
_cell_angle_beta   89.99403381
_cell_angle_gamma   90.00646210
_symmetry_Int_Tables_number   1
_chemical_formula_structural   EuBrO
_chemical_formula_sum   'Eu2 Br2 O2'
_cell_volume   126.50923035
_cell_formula_units_Z   2
loop_
 _symmetry_equiv_pos_site_id
 _symmetry_equiv_pos_as_xyz
  1  'x, y, z'
loop_
 _atom_site_type_symbol
 _atom_site_label
 _atom_site_symmetry_multiplicity
 _atom_site_fract_x
 _atom_site_fract_y
 _atom_site_fract_z
 _atom_site_occupancy
  Eu  Eu0  1  0.84542555  0.22605060  0.13671617  1
  Eu  Eu1  1  0.34535405  0.72546041  0.82752705  1
  Br  Br2  1  0.84516507  0.22563861  0.61974603  1
  Br  Br3  1  0.34500644  0.72582728  0.34236750  1
  O  O4  1  0.34552431  0.22586855  0.97817683  1
  O  O5  1  0.84599340  0.72594875  0.97807956  1
