# generated using pymatgen
data_EuCu5
_symmetry_space_group_name_H-M   'P 1'
_cell_length_a   4.13938904
_cell_length_b   5.13852787
_cell_length_c   5.12371206
_cell_angle_alpha   120.10251617
_cell_angle_beta   89.82843018
_cell_angle_gamma   90.17601776
_symmetry_Int_Tables_number   1
_chemical_formula_structural   EuCu5
_chemical_formula_sum   'Eu1 Cu5'
_cell_volume   94.28401835
_cell_formula_units_Z   1
loop_
 _symmetry_equiv_pos_site_id
 _symmetry_equiv_pos_as_xyz
  1  'x, y, z'
loop_
 _atom_site_type_symbol
 _atom_site_label
 _atom_site_symmetry_multiplicity
 _atom_site_fract_x
 _atom_site_fract_y
 _atom_site_fract_z
 _atom_site_occupancy
  Eu  Eu0  1  0.86631417  0.66674292  0.01655990  1
  Cu  Cu1  1  0.36584517  0.16656893  0.51665896  1
  Cu  Cu2  1  0.36548123  0.16595197  0.01615848  1
  Cu  Cu3  1  0.36575630  0.66678184  0.51636100  1
  Cu  Cu4  1  0.86543506  0.99984086  0.68254262  1
  Cu  Cu5  1  0.86584204  0.33528784  0.35274360  1
