# generated using pymatgen
data_EuGaAg
_symmetry_space_group_name_H-M   'P 1'
_cell_length_a   4.74979258
_cell_length_b   5.92191935
_cell_length_c   6.06365252
_cell_angle_alpha   78.85912323
_cell_angle_beta   66.64599609
_cell_angle_gamma   66.28742981
_symmetry_Int_Tables_number   1
_chemical_formula_structural   EuGaAg
_chemical_formula_sum   'Eu2 Ga2 Ag2'
_cell_volume   143.24875066
_cell_formula_units_Z   2
loop_
 _symmetry_equiv_pos_site_id
 _symmetry_equiv_pos_as_xyz
  1  'x, y, z'
loop_
 _atom_site_type_symbol
 _atom_site_label
 _atom_site_symmetry_multiplicity
 _atom_site_fract_x
 _atom_site_fract_y
 _atom_site_fract_z
 _atom_site_occupancy
  Eu  Eu0  1  0.07253501  0.35078916  0.80734879  1
  Eu  Eu1  1  0.15615492  0.77549839  0.20962562  1
  Ga  Ga2  1  0.77134240  0.35245252  0.40242693  1
  Ga  Ga3  1  0.45626342  0.77879274  0.61271352  1
  Ag  Ag4  1  0.43961152  0.17488681  0.24322404  1
  Ag  Ag5  1  0.78626168  0.95184213  0.77702224  1
