# generated using pymatgen
data_EuNi2B2C
_symmetry_space_group_name_H-M   'P 1'
_cell_length_a   3.65513539
_cell_length_b   3.66074586
_cell_length_c   5.58994913
_cell_angle_alpha   108.95233917
_cell_angle_beta   109.10020447
_cell_angle_gamma   89.98326111
_symmetry_Int_Tables_number   1
_chemical_formula_structural   EuNi2B2C
_chemical_formula_sum   'Eu1 Ni2 B2 C1'
_cell_volume   66.37547208
_cell_formula_units_Z   1
loop_
 _symmetry_equiv_pos_site_id
 _symmetry_equiv_pos_as_xyz
  1  'x, y, z'
loop_
 _atom_site_type_symbol
 _atom_site_label
 _atom_site_symmetry_multiplicity
 _atom_site_fract_x
 _atom_site_fract_y
 _atom_site_fract_z
 _atom_site_occupancy
  Eu  Eu0  1  0.51468211  0.92561245  0.31523600  1
  Ni  Ni1  1  0.76444393  0.67600924  0.81519014  1
  Ni  Ni2  1  0.26388359  0.17543936  0.81539482  1
  B  B3  1  0.86688894  0.27893335  0.01971080  1
  B  B4  1  0.16283472  0.57420176  0.61382020  1
  C  C5  1  0.01456036  0.42483410  0.31547955  1
