# generated using pymatgen
data_EuNi5
_symmetry_space_group_name_H-M   'P 1'
_cell_length_a   3.93641329
_cell_length_b   4.94082165
_cell_length_c   4.92546368
_cell_angle_alpha   59.62817764
_cell_angle_beta   89.99484253
_cell_angle_gamma   90.30768585
_symmetry_Int_Tables_number   1
_chemical_formula_structural   EuNi5
_chemical_formula_sum   'Eu1 Ni5'
_cell_volume   82.64748710
_cell_formula_units_Z   1
loop_
 _symmetry_equiv_pos_site_id
 _symmetry_equiv_pos_as_xyz
  1  'x, y, z'
loop_
 _atom_site_type_symbol
 _atom_site_label
 _atom_site_symmetry_multiplicity
 _atom_site_fract_x
 _atom_site_fract_y
 _atom_site_fract_z
 _atom_site_occupancy
  Eu  Eu0  1  0.14784758  0.77001709  0.10755160  1
  Ni  Ni1  1  0.64755213  0.76992100  0.60778558  1
  Ni  Ni2  1  0.64768994  0.27006519  0.10760485  1
  Ni  Ni3  1  0.14743400  0.43579784  0.77334583  1
  Ni  Ni4  1  0.14767657  0.10444912  0.44288036  1
  Ni  Ni5  1  0.64764285  0.27012166  0.60787636  1
