# generated using pymatgen
data_EuPd3S4
_symmetry_space_group_name_H-M   'P 1'
_cell_length_a   6.76825714
_cell_length_b   6.77505922
_cell_length_c   6.79916954
_cell_angle_alpha   89.87004852
_cell_angle_beta   89.80820465
_cell_angle_gamma   90.06702423
_symmetry_Int_Tables_number   1
_chemical_formula_structural   EuPd3S4
_chemical_formula_sum   'Eu2 Pd6 S8'
_cell_volume   311.77548635
_cell_formula_units_Z   2
loop_
 _symmetry_equiv_pos_site_id
 _symmetry_equiv_pos_as_xyz
  1  'x, y, z'
loop_
 _atom_site_type_symbol
 _atom_site_label
 _atom_site_symmetry_multiplicity
 _atom_site_fract_x
 _atom_site_fract_y
 _atom_site_fract_z
 _atom_site_occupancy
  Eu  Eu0  1  0.46040523  0.62157035  0.15844540  1
  Eu  Eu1  1  0.96005374  0.12169495  0.65841901  1
  Pd  Pd2  1  0.95967323  0.62153876  0.40849471  1
  Pd  Pd3  1  0.46041793  0.87055540  0.65780157  1
  Pd  Pd4  1  0.95958668  0.62168962  0.90833282  1
  Pd  Pd5  1  0.71010852  0.12206781  0.15798588  1
  Pd  Pd6  1  0.20995960  0.12130167  0.15897071  1
  Pd  Pd7  1  0.45955172  0.37104547  0.65803677  1
  S  S8  1  0.70990241  0.37078628  0.40837672  1
  S  S9  1  0.71003795  0.37144312  0.90864050  1
  S  S10  1  0.20926684  0.87105268  0.40844691  1
  S  S11  1  0.20874915  0.87119955  0.90871364  1
  S  S12  1  0.71045601  0.87102425  0.90848494  1
  S  S13  1  0.70988190  0.87136215  0.40826851  1
  S  S14  1  0.20952332  0.37015569  0.40874025  1
  S  S15  1  0.21013477  0.37182409  0.90853643  1
