# generated using pymatgen
data_EuSi2
_symmetry_space_group_name_H-M   'P 1'
_cell_length_a   4.35440636
_cell_length_b   4.34978390
_cell_length_c   7.43618631
_cell_angle_alpha   107.05561066
_cell_angle_beta   106.94676971
_cell_angle_gamma   90.08467865
_symmetry_Int_Tables_number   1
_chemical_formula_structural   EuSi2
_chemical_formula_sum   'Eu2 Si4'
_cell_volume   128.22147107
_cell_formula_units_Z   2
loop_
 _symmetry_equiv_pos_site_id
 _symmetry_equiv_pos_as_xyz
  1  'x, y, z'
loop_
 _atom_site_type_symbol
 _atom_site_label
 _atom_site_symmetry_multiplicity
 _atom_site_fract_x
 _atom_site_fract_y
 _atom_site_fract_z
 _atom_site_occupancy
  Eu  Eu0  1  0.23778270  0.91883957  0.90495014  1
  Eu  Eu1  1  0.48709974  0.66696805  0.40431276  1
  Si  Si2  1  0.65004325  0.33232498  0.73505753  1
  Si  Si3  1  0.07071212  0.24982429  0.57152158  1
  Si  Si4  1  0.82129276  0.50131935  0.07054799  1
  Si  Si5  1  0.89980382  0.08220548  0.23453860  1
