# generated using pymatgen
data_Fe(HO)2
_symmetry_space_group_name_H-M   'P 1'
_cell_length_a   3.17329049
_cell_length_b   5.02977705
_cell_length_c   12.17561913
_cell_angle_alpha   90.20227814
_cell_angle_beta   89.87593842
_cell_angle_gamma   89.53739166
_symmetry_Int_Tables_number   1
_chemical_formula_structural   Fe(HO)2
_chemical_formula_sum   'Fe4 H8 O8'
_cell_volume   194.32635820
_cell_formula_units_Z   4
loop_
 _symmetry_equiv_pos_site_id
 _symmetry_equiv_pos_as_xyz
  1  'x, y, z'
loop_
 _atom_site_type_symbol
 _atom_site_label
 _atom_site_symmetry_multiplicity
 _atom_site_fract_x
 _atom_site_fract_y
 _atom_site_fract_z
 _atom_site_occupancy
  Fe  Fe0  1  0.90513647  0.93263370  0.70381069  1
  Fe  Fe1  1  0.90454012  0.51534474  0.03918293  1
  Fe  Fe2  1  0.90502948  0.52049094  0.53976721  1
  Fe  Fe3  1  0.40637869  0.33857435  0.29030180  1
  H  H4  1  0.90464759  0.94117439  0.27788168  1
  H  H5  1  0.90545446  0.06205783  0.49124622  1
  H  H6  1  0.40535039  0.44882229  0.68836510  1
  H  H7  1  0.40568846  0.77316666  0.17225634  1
  H  H8  1  0.90520138  0.05933765  0.99376589  1
  H  H9  1  0.40562680  0.74331748  0.89967984  1
  H  H10  1  0.40579250  0.25035861  0.81664449  1
  H  H11  1  0.40552586  0.77125758  0.40431947  1
  O  O12  1  0.40563142  0.13919400  0.77337062  1
  O  O13  1  0.40514851  0.59290248  0.42900375  1
  O  O14  1  0.90488923  0.09649333  0.29441750  1
  O  O15  1  0.40563685  0.64215612  0.65311015  1
  O  O16  1  0.40572026  0.59149361  0.15311562  1
  O  O17  1  0.40545413  0.60874420  0.93600845  1
  O  O18  1  0.90520000  0.14773366  0.03957534  1
  O  O19  1  0.90515423  0.12447468  0.55210644  1
