# generated using pymatgen
data_Fe3Te2Se
_symmetry_space_group_name_H-M   'P 1'
_cell_length_a   5.93275452
_cell_length_b   6.82585144
_cell_length_c   6.85117006
_cell_angle_alpha   119.46628571
_cell_angle_beta   90.10089111
_cell_angle_gamma   89.89447784
_symmetry_Int_Tables_number   1
_chemical_formula_structural   Fe3Te2Se
_chemical_formula_sum   'Fe6 Te4 Se2'
_cell_volume   241.55624640
_cell_formula_units_Z   2
loop_
 _symmetry_equiv_pos_site_id
 _symmetry_equiv_pos_as_xyz
  1  'x, y, z'
loop_
 _atom_site_type_symbol
 _atom_site_label
 _atom_site_symmetry_multiplicity
 _atom_site_fract_x
 _atom_site_fract_y
 _atom_site_fract_z
 _atom_site_occupancy
  Fe  Fe0  1  0.41234595  0.88281053  0.77710158  1
  Fe  Fe1  1  0.66640979  0.59188962  0.46676806  1
  Fe  Fe2  1  0.66601104  0.88296849  0.12079118  1
  Fe  Fe3  1  0.16580544  0.22571583  0.77910948  1
  Fe  Fe4  1  0.19024247  0.54774588  0.45080185  1
  Fe  Fe5  1  0.01698624  0.88230777  0.45048907  1
  Te  Te6  1  0.41077840  0.22428672  0.12219216  1
  Te  Te7  1  0.90921736  0.22643766  0.44610113  1
  Te  Te8  1  0.91024125  0.54971474  0.12050631  1
  Te  Te9  1  0.91084075  0.88426238  0.79192334  1
  Se  Se10  1  0.41178483  0.88329452  0.44509161  1
  Se  Se11  1  0.41188526  0.55220771  0.78058064  1
