# generated using pymatgen
data_Fe7Ge4
_symmetry_space_group_name_H-M   'P 1'
_cell_length_a   4.01994705
_cell_length_b   4.94878387
_cell_length_c   6.91978407
_cell_angle_alpha   89.95082092
_cell_angle_beta   89.91432953
_cell_angle_gamma   89.88474274
_symmetry_Int_Tables_number   1
_chemical_formula_structural   Fe7Ge4
_chemical_formula_sum   'Fe7 Ge4'
_cell_volume   137.66065763
_cell_formula_units_Z   1
loop_
 _symmetry_equiv_pos_site_id
 _symmetry_equiv_pos_as_xyz
  1  'x, y, z'
loop_
 _atom_site_type_symbol
 _atom_site_label
 _atom_site_symmetry_multiplicity
 _atom_site_fract_x
 _atom_site_fract_y
 _atom_site_fract_z
 _atom_site_occupancy
  Fe  Fe0  1  0.64277911  0.94129181  0.80686820  1
  Fe  Fe1  1  0.14309503  0.44051561  0.30754650  1
  Fe  Fe2  1  0.64303476  0.43736354  0.80752534  1
  Fe  Fe3  1  0.14261582  0.93739796  0.30763641  1
  Fe  Fe4  1  0.14273342  0.68851447  0.63865638  1
  Fe  Fe5  1  0.64282209  0.68852234  0.13879338  1
  Fe  Fe6  1  0.14293191  0.18843004  0.97307444  1
  Ge  Ge7  1  0.64289659  0.18802521  0.17495096  1
  Ge  Ge8  1  0.14302759  0.18804105  0.62080169  1
  Ge  Ge9  1  0.64293444  0.68799597  0.46852919  1
  Ge  Ge10  1  0.14274611  0.68885070  0.96614993  1
