# generated using pymatgen
data_FeCoB2
_symmetry_space_group_name_H-M   'P 1'
_cell_length_a   3.05169725
_cell_length_b   4.02768326
_cell_length_c   5.27893209
_cell_angle_alpha   89.98509216
_cell_angle_beta   89.75809479
_cell_angle_gamma   89.88727570
_symmetry_Int_Tables_number   1
_chemical_formula_structural   FeCoB2
_chemical_formula_sum   'Fe2 Co2 B4'
_cell_volume   64.88407343
_cell_formula_units_Z   2
loop_
 _symmetry_equiv_pos_site_id
 _symmetry_equiv_pos_as_xyz
  1  'x, y, z'
loop_
 _atom_site_type_symbol
 _atom_site_label
 _atom_site_symmetry_multiplicity
 _atom_site_fract_x
 _atom_site_fract_y
 _atom_site_fract_z
 _atom_site_occupancy
  Fe  Fe0  1  0.09228829  0.93598360  0.14270294  1
  Fe  Fe1  1  0.59258932  0.68143570  0.79118758  1
  Co  Co2  1  0.59215403  0.43547484  0.29131261  1
  Co  Co3  1  0.09238097  0.17910382  0.64200163  1
  B  B4  1  0.09197950  0.68927807  0.49755132  1
  B  B5  1  0.09210193  0.42325342  0.99769711  1
  B  B6  1  0.59183997  0.19030029  0.93001628  1
  B  B7  1  0.59190029  0.92396164  0.42949888  1
