# generated using pymatgen
data_FeCu2SnS4
_symmetry_space_group_name_H-M   'P 1'
_cell_length_a   5.41836214
_cell_length_b   5.39918518
_cell_length_c   5.41613150
_cell_angle_alpha   89.70324707
_cell_angle_beta   89.78863525
_cell_angle_gamma   89.93393707
_symmetry_Int_Tables_number   1
_chemical_formula_structural   FeCu2SnS4
_chemical_formula_sum   'Fe1 Cu2 Sn1 S4'
_cell_volume   158.44421665
_cell_formula_units_Z   1
loop_
 _symmetry_equiv_pos_site_id
 _symmetry_equiv_pos_as_xyz
  1  'x, y, z'
loop_
 _atom_site_type_symbol
 _atom_site_label
 _atom_site_symmetry_multiplicity
 _atom_site_fract_x
 _atom_site_fract_y
 _atom_site_fract_z
 _atom_site_occupancy
  Fe  Fe0  1  0.97179610  0.63337666  0.99997848  1
  Cu  Cu1  1  0.47214690  0.63420612  0.50228655  1
  Cu  Cu2  1  0.97174603  0.13383880  0.50208926  1
  Sn  Sn3  1  0.47241855  0.13377221  0.00018872  1
  S  S4  1  0.73439336  0.86946237  0.73726934  1
  S  S5  1  0.20028704  0.40018970  0.73786956  1
  S  S6  1  0.73456967  0.40034956  0.26266587  1
  S  S7  1  0.20134537  0.86853594  0.26309633  1
