# generated using pymatgen
data_FeCu2SiSe4
_symmetry_space_group_name_H-M   'P 1'
_cell_length_a   5.53711462
_cell_length_b   5.54367208
_cell_length_c   6.75275469
_cell_angle_alpha   114.14516449
_cell_angle_beta   114.25469971
_cell_angle_gamma   89.82164001
_symmetry_Int_Tables_number   1
_chemical_formula_structural   FeCu2SiSe4
_chemical_formula_sum   'Fe1 Cu2 Si1 Se4'
_cell_volume   169.02885283
_cell_formula_units_Z   1
loop_
 _symmetry_equiv_pos_site_id
 _symmetry_equiv_pos_as_xyz
  1  'x, y, z'
loop_
 _atom_site_type_symbol
 _atom_site_label
 _atom_site_symmetry_multiplicity
 _atom_site_fract_x
 _atom_site_fract_y
 _atom_site_fract_z
 _atom_site_occupancy
  Fe  Fe0  1  0.18914230  0.21088588  0.84156257  1
  Cu  Cu1  1  0.43829969  0.95988792  0.34149081  1
  Cu  Cu2  1  0.93865937  0.46049666  0.34138739  1
  Si  Si3  1  0.68852496  0.71144605  0.84120369  1
  Se  Se4  1  0.80937988  0.34190166  0.59475386  1
  Se  Se5  1  0.05763239  0.08130959  0.08935189  1
  Se  Se6  1  0.56846482  0.58958387  0.08859397  1
  Se  Se7  1  0.31854630  0.83338469  0.59301871  1
