# generated using pymatgen
data_FeOF
_symmetry_space_group_name_H-M   'P 1'
_cell_length_a   3.16757298
_cell_length_b   4.67754841
_cell_length_c   4.73170805
_cell_angle_alpha   89.63095093
_cell_angle_beta   89.64898682
_cell_angle_gamma   90.01290894
_symmetry_Int_Tables_number   1
_chemical_formula_structural   FeOF
_chemical_formula_sum   'Fe2 O2 F2'
_cell_volume   70.10446606
_cell_formula_units_Z   2
loop_
 _symmetry_equiv_pos_site_id
 _symmetry_equiv_pos_as_xyz
  1  'x, y, z'
loop_
 _atom_site_type_symbol
 _atom_site_label
 _atom_site_symmetry_multiplicity
 _atom_site_fract_x
 _atom_site_fract_y
 _atom_site_fract_z
 _atom_site_occupancy
  Fe  Fe0  1  0.86902106  0.80807430  0.11369425  1
  Fe  Fe1  1  0.36910132  0.30820987  0.55447549  1
  O  O2  1  0.36938834  0.00467971  0.28175911  1
  O  O3  1  0.86909461  0.50386673  0.38639343  1
  F  F4  1  0.86875075  0.11015223  0.78030288  1
  F  F5  1  0.36900878  0.60945857  0.88708574  1
