# generated using pymatgen
data_FeSbAs
_symmetry_space_group_name_H-M   'P 1'
_cell_length_a   3.29070210
_cell_length_b   5.40663338
_cell_length_c   6.19789982
_cell_angle_alpha   90.14756012
_cell_angle_beta   90.00921631
_cell_angle_gamma   90.21341705
_symmetry_Int_Tables_number   1
_chemical_formula_structural   FeSbAs
_chemical_formula_sum   'Fe2 Sb2 As2'
_cell_volume   110.26954507
_cell_formula_units_Z   2
loop_
 _symmetry_equiv_pos_site_id
 _symmetry_equiv_pos_as_xyz
  1  'x, y, z'
loop_
 _atom_site_type_symbol
 _atom_site_label
 _atom_site_symmetry_multiplicity
 _atom_site_fract_x
 _atom_site_fract_y
 _atom_site_fract_z
 _atom_site_occupancy
  Fe  Fe0  1  0.46012414  0.51076871  0.90519768  1
  Fe  Fe1  1  0.95934993  0.01109043  0.36436582  1
  Sb  Sb2  1  0.95950466  0.82880461  0.73949522  1
  Sb  Sb3  1  0.45938969  0.33039582  0.52435184  1
  As  As4  1  0.95957899  0.22873919  0.02222406  1
  As  As5  1  0.45960465  0.72943914  0.23958774  1
