# generated using pymatgen
data_Ga2PbO4
_symmetry_space_group_name_H-M   'P 1'
_cell_length_a   3.68307281
_cell_length_b   6.83921385
_cell_length_c   8.22451591
_cell_angle_alpha   82.42420959
_cell_angle_beta   77.00709534
_cell_angle_gamma   74.12855530
_symmetry_Int_Tables_number   1
_chemical_formula_structural   Ga2PbO4
_chemical_formula_sum   'Ga4 Pb2 O8'
_cell_volume   193.62264527
_cell_formula_units_Z   2
loop_
 _symmetry_equiv_pos_site_id
 _symmetry_equiv_pos_as_xyz
  1  'x, y, z'
loop_
 _atom_site_type_symbol
 _atom_site_label
 _atom_site_symmetry_multiplicity
 _atom_site_fract_x
 _atom_site_fract_y
 _atom_site_fract_z
 _atom_site_occupancy
  Ga  Ga0  1  0.62880284  0.69430763  0.04917999  1
  Ga  Ga1  1  0.38674742  0.33652210  0.90539199  1
  Ga  Ga2  1  0.16269763  0.41739857  0.25911182  1
  Ga  Ga3  1  0.89963216  0.57259727  0.64631820  1
  Pb  Pb4  1  0.87031651  0.98793781  0.29860789  1
  Pb  Pb5  1  0.16216381  0.96279049  0.73370600  1
  O  O6  1  0.48699769  0.78585708  0.25309125  1
  O  O7  1  0.34778091  0.58640605  0.72677636  1
  O  O8  1  0.18590525  0.58433455  0.04907971  1
  O  O9  1  0.75332904  0.32082555  0.18799815  1
  O  O10  1  0.94277120  0.30536979  0.81431293  1
  O  O11  1  0.55838692  0.96874607  0.92058033  1
  O  O12  1  0.04405234  0.46366394  0.45471123  1
  O  O13  1  0.78565073  0.86566478  0.57601172  1
