# generated using pymatgen
data_GaCu3
_symmetry_space_group_name_H-M   'P 1'
_cell_length_a   4.25625706
_cell_length_b   4.52442837
_cell_length_c   5.17768860
_cell_angle_alpha   90.20668793
_cell_angle_beta   90.14028168
_cell_angle_gamma   90.00560760
_symmetry_Int_Tables_number   1
_chemical_formula_structural   GaCu3
_chemical_formula_sum   'Ga2 Cu6'
_cell_volume   99.70647515
_cell_formula_units_Z   2
loop_
 _symmetry_equiv_pos_site_id
 _symmetry_equiv_pos_as_xyz
  1  'x, y, z'
loop_
 _atom_site_type_symbol
 _atom_site_label
 _atom_site_symmetry_multiplicity
 _atom_site_fract_x
 _atom_site_fract_y
 _atom_site_fract_z
 _atom_site_occupancy
  Ga  Ga0  1  0.95309240  0.86663258  0.42212114  1
  Ga  Ga1  1  0.45421714  0.53779137  0.92164731  1
  Cu  Cu2  1  0.95313501  0.36500570  0.17100354  1
  Cu  Cu3  1  0.95363313  0.87000483  0.92160916  1
  Cu  Cu4  1  0.45302418  0.03670464  0.67135829  1
  Cu  Cu5  1  0.45329949  0.53585082  0.42178777  1
  Cu  Cu6  1  0.45298129  0.03534636  0.17159435  1
  Cu  Cu7  1  0.95298439  0.36971435  0.67236584  1
