# generated using pymatgen
data_GaCuGeSe4
_symmetry_space_group_name_H-M   'P 1'
_cell_length_a   5.64380884
_cell_length_b   5.63647795
_cell_length_c   6.81165791
_cell_angle_alpha   114.53132629
_cell_angle_beta   114.53018951
_cell_angle_gamma   90.25142670
_symmetry_Int_Tables_number   1
_chemical_formula_structural   GaCuGeSe4
_chemical_formula_sum   'Ga1 Cu1 Ge1 Se4'
_cell_volume   175.19736850
_cell_formula_units_Z   1
loop_
 _symmetry_equiv_pos_site_id
 _symmetry_equiv_pos_as_xyz
  1  'x, y, z'
loop_
 _atom_site_type_symbol
 _atom_site_label
 _atom_site_symmetry_multiplicity
 _atom_site_fract_x
 _atom_site_fract_y
 _atom_site_fract_z
 _atom_site_occupancy
  Ga  Ga0  1  0.01658989  0.98983580  0.94949293  1
  Cu  Cu1  1  0.26686028  0.73926771  0.44931886  1
  Ge  Ge2  1  0.76655769  0.24043722  0.44956034  1
  Se  Se3  1  0.87979352  0.36973667  0.18940641  1
  Se  Se4  1  0.63510883  0.61604291  0.70878673  1
  Se  Se5  1  0.38910833  0.85294557  0.18966624  1
  Se  Se6  1  0.15427138  0.12705041  0.70695615  1
