# generated using pymatgen
data_GaFe3
_symmetry_space_group_name_H-M   'P 1'
_cell_length_a   3.98216105
_cell_length_b   5.05201960
_cell_length_c   5.07427263
_cell_angle_alpha   92.02263641
_cell_angle_beta   90.48683929
_cell_angle_gamma   90.04158783
_symmetry_Int_Tables_number   1
_chemical_formula_structural   GaFe3
_chemical_formula_sum   'Ga2 Fe6'
_cell_volume   102.01665283
_cell_formula_units_Z   2
loop_
 _symmetry_equiv_pos_site_id
 _symmetry_equiv_pos_as_xyz
  1  'x, y, z'
loop_
 _atom_site_type_symbol
 _atom_site_label
 _atom_site_symmetry_multiplicity
 _atom_site_fract_x
 _atom_site_fract_y
 _atom_site_fract_z
 _atom_site_occupancy
  Ga  Ga0  1  0.44162494  0.92193937  0.73925889  1
  Ga  Ga1  1  0.94176948  0.63756603  0.01902925  1
  Fe  Fe2  1  0.94121587  0.15054516  0.01113437  1
  Fe  Fe3  1  0.44162670  0.40944588  0.75011742  1
  Fe  Fe4  1  0.44140339  0.40542230  0.25360572  1
  Fe  Fe5  1  0.94119453  0.65215325  0.50048351  1
  Fe  Fe6  1  0.44170743  0.90943581  0.25259233  1
  Fe  Fe7  1  0.94162565  0.15336730  0.50136310  1
