# generated using pymatgen
data_GaSi3C3N
_symmetry_space_group_name_H-M   'P 1'
_cell_length_a   3.23335576
_cell_length_b   3.20826507
_cell_length_c   10.11464405
_cell_angle_alpha   80.80693054
_cell_angle_beta   80.96035767
_cell_angle_gamma   60.00668335
_symmetry_Int_Tables_number   1
_chemical_formula_structural   GaSi3C3N
_chemical_formula_sum   'Ga1 Si3 C3 N1'
_cell_volume   89.33869548
_cell_formula_units_Z   1
loop_
 _symmetry_equiv_pos_site_id
 _symmetry_equiv_pos_as_xyz
  1  'x, y, z'
loop_
 _atom_site_type_symbol
 _atom_site_label
 _atom_site_symmetry_multiplicity
 _atom_site_fract_x
 _atom_site_fract_y
 _atom_site_fract_z
 _atom_site_occupancy
  Ga  Ga0  1  0.74190384  0.37266225  0.27534488  1
  Si  Si1  1  0.63709015  0.26365846  0.58876634  1
  Si  Si2  1  0.88983482  0.51987189  0.83574879  1
  Si  Si3  1  0.48814726  0.11985899  0.03710306  1
  C  C4  1  0.80754036  0.43348637  0.06960948  1
  C  C5  1  0.32521603  0.95411938  0.51471961  1
  C  C6  1  0.57272929  0.20027809  0.79245973  1
  N  N7  1  0.03658658  0.66298443  0.39142296  1
