# generated using pymatgen
data_GaTe
_symmetry_space_group_name_H-M   'P 1'
_cell_length_a   6.25080013
_cell_length_b   6.26267958
_cell_length_c   6.29334784
_cell_angle_alpha   90.08678436
_cell_angle_beta   90.14152527
_cell_angle_gamma   90.01499176
_symmetry_Int_Tables_number   1
_chemical_formula_structural   GaTe
_chemical_formula_sum   'Ga4 Te4'
_cell_volume   246.36312395
_cell_formula_units_Z   4
loop_
 _symmetry_equiv_pos_site_id
 _symmetry_equiv_pos_as_xyz
  1  'x, y, z'
loop_
 _atom_site_type_symbol
 _atom_site_label
 _atom_site_symmetry_multiplicity
 _atom_site_fract_x
 _atom_site_fract_y
 _atom_site_fract_z
 _atom_site_occupancy
  Ga  Ga0  1  0.25157133  0.82888597  0.98491859  1
  Ga  Ga1  1  0.75166911  0.32839978  0.48410654  1
  Ga  Ga2  1  0.25163445  0.82880247  0.48457336  1
  Ga  Ga3  1  0.75184423  0.32874066  0.98488945  1
  Te  Te4  1  0.50210524  0.57985616  0.23392577  1
  Te  Te5  1  0.00197779  0.58003557  0.73372728  1
  Te  Te6  1  0.00200677  0.07951269  0.23378432  1
  Te  Te7  1  0.50241935  0.07992644  0.73352343  1
