# generated using pymatgen
data_Gd2AgIr
_symmetry_space_group_name_H-M   'P 1'
_cell_length_a   5.06296825
_cell_length_b   5.06099272
_cell_length_c   5.06131315
_cell_angle_alpha   59.93262482
_cell_angle_beta   60.08414078
_cell_angle_gamma   60.06208420
_symmetry_Int_Tables_number   1
_chemical_formula_structural   Gd2AgIr
_chemical_formula_sum   'Gd2 Ag1 Ir1'
_cell_volume   91.75844325
_cell_formula_units_Z   1
loop_
 _symmetry_equiv_pos_site_id
 _symmetry_equiv_pos_as_xyz
  1  'x, y, z'
loop_
 _atom_site_type_symbol
 _atom_site_label
 _atom_site_symmetry_multiplicity
 _atom_site_fract_x
 _atom_site_fract_y
 _atom_site_fract_z
 _atom_site_occupancy
  Gd  Gd0  1  0.41039112  0.85184103  0.64780980  1
  Gd  Gd1  1  0.90988064  0.35203293  0.14855975  1
  Ag  Ag2  1  0.16058636  0.60190403  0.39787889  1
  Ir  Ir3  1  0.65976208  0.10186879  0.89804369  1
