# generated using pymatgen
data_Gd2Cu(GeO3)4
_symmetry_space_group_name_H-M   'P 1'
_cell_length_a   5.32037449
_cell_length_b   6.92300034
_cell_length_c   7.08013582
_cell_angle_alpha   84.38043213
_cell_angle_beta   84.90924072
_cell_angle_gamma   84.78136444
_symmetry_Int_Tables_number   1
_chemical_formula_structural   Gd2Cu(GeO3)4
_chemical_formula_sum   'Gd2 Cu1 Ge4 O12'
_cell_volume   257.61347283
_cell_formula_units_Z   1
loop_
 _symmetry_equiv_pos_site_id
 _symmetry_equiv_pos_as_xyz
  1  'x, y, z'
loop_
 _atom_site_type_symbol
 _atom_site_label
 _atom_site_symmetry_multiplicity
 _atom_site_fract_x
 _atom_site_fract_y
 _atom_site_fract_z
 _atom_site_occupancy
  Gd  Gd0  1  0.00136419  0.87931353  0.70496649  1
  Gd  Gd1  1  0.49650073  0.10013220  0.03093834  1
  Cu  Cu2  1  0.99283177  0.28833690  0.32391632  1
  Ge  Ge3  1  0.46337545  0.60758334  0.37893930  1
  Ge  Ge4  1  0.49748346  0.11494611  0.52351713  1
  Ge  Ge5  1  0.04687610  0.37801820  0.82797176  1
  Ge  Ge6  1  0.95484519  0.78988802  0.20945622  1
  O  O7  1  0.63251096  0.03054213  0.75773513  1
  O  O8  1  0.38436717  0.78752995  0.54677492  1
  O  O9  1  0.90264708  0.58879942  0.73697662  1
  O  O10  1  0.15030093  0.57325810  0.30436003  1
  O  O11  1  0.65220267  0.72953808  0.16231722  1
  O  O12  1  0.85945296  0.27760378  0.04459485  1
  O  O13  1  0.15516806  0.18769304  0.65539652  1
  O  O14  1  0.13746482  0.88751656  0.00620260  1
  O  O15  1  0.31677955  0.40548095  0.91819042  1
  O  O16  1  0.31954983  0.15531614  0.30420807  1
  O  O17  1  0.64790422  0.36725497  0.45738229  1
  O  O18  1  0.84049827  0.96369743  0.39170894  1
