# generated using pymatgen
data_Gd2IrPd
_symmetry_space_group_name_H-M   'P 1'
_cell_length_a   4.94010353
_cell_length_b   4.95406151
_cell_length_c   4.94146872
_cell_angle_alpha   59.62980652
_cell_angle_beta   59.84606934
_cell_angle_gamma   59.93881607
_symmetry_Int_Tables_number   1
_chemical_formula_structural   Gd2IrPd
_chemical_formula_sum   'Gd2 Ir1 Pd1'
_cell_volume   85.13420995
_cell_formula_units_Z   1
loop_
 _symmetry_equiv_pos_site_id
 _symmetry_equiv_pos_as_xyz
  1  'x, y, z'
loop_
 _atom_site_type_symbol
 _atom_site_label
 _atom_site_symmetry_multiplicity
 _atom_site_fract_x
 _atom_site_fract_y
 _atom_site_fract_z
 _atom_site_occupancy
  Gd  Gd0  1  0.17363167  0.85577053  0.93333679  1
  Gd  Gd1  1  0.67387015  0.35582006  0.43288481  1
  Ir  Ir2  1  0.42373711  0.10547407  0.18334447  1
  Pd  Pd3  1  0.92422074  0.60541731  0.68316019  1
