# generated using pymatgen
data_Gd2Ni7
_symmetry_space_group_name_H-M   'P 1'
_cell_length_a   4.91342926
_cell_length_b   4.91005421
_cell_length_c   12.28565502
_cell_angle_alpha   78.11632538
_cell_angle_beta   78.10338593
_cell_angle_gamma   59.91976547
_symmetry_Int_Tables_number   1
_chemical_formula_structural   Gd2Ni7
_chemical_formula_sum   'Gd4 Ni14'
_cell_volume   249.11877249
_cell_formula_units_Z   2
loop_
 _symmetry_equiv_pos_site_id
 _symmetry_equiv_pos_as_xyz
  1  'x, y, z'
loop_
 _atom_site_type_symbol
 _atom_site_label
 _atom_site_symmetry_multiplicity
 _atom_site_fract_x
 _atom_site_fract_y
 _atom_site_fract_z
 _atom_site_occupancy
  Gd  Gd0  1  0.66899025  0.05341889  0.01894734  1
  Gd  Gd1  1  0.57554877  0.96088862  0.30835459  1
  Gd  Gd2  1  0.47305059  0.85766435  0.61650670  1
  Gd  Gd3  1  0.37544543  0.76025462  0.90689218  1
  Ni  Ni4  1  0.24328864  0.63000506  0.29745966  1
  Ni  Ni5  1  0.90839130  0.29551741  0.29838905  1
  Ni  Ni6  1  0.90985167  0.79751861  0.79377049  1
  Ni  Ni7  1  0.52099633  0.40763456  0.46455491  1
  Ni  Ni8  1  0.40957320  0.29839441  0.79338109  1
  Ni  Ni9  1  0.13267452  0.51882887  0.62978607  1
  Ni  Ni10  1  0.91069937  0.29833674  0.79362756  1
  Ni  Ni11  1  0.02181238  0.90744269  0.46469802  1
  Ni  Ni12  1  0.13145526  0.51748574  0.13386190  1
  Ni  Ni13  1  0.02159604  0.40747219  0.46454203  1
  Ni  Ni14  1  0.13115956  0.01624835  0.13365695  1
  Ni  Ni15  1  0.79802084  0.18440171  0.62990773  1
  Ni  Ni16  1  0.63154942  0.51621103  0.13384588  1
  Ni  Ni17  1  0.02095105  0.40699548  0.96414489  1
