# generated using pymatgen
data_Gd2Se3
_symmetry_space_group_name_H-M   'P 1'
_cell_length_a   4.22668839
_cell_length_b   11.21449852
_cell_length_c   11.41969585
_cell_angle_alpha   98.66201782
_cell_angle_beta   90.09446716
_cell_angle_gamma   89.93976593
_symmetry_Int_Tables_number   1
_chemical_formula_structural   Gd2Se3
_chemical_formula_sum   'Gd8 Se12'
_cell_volume   535.12080610
_cell_formula_units_Z   4
loop_
 _symmetry_equiv_pos_site_id
 _symmetry_equiv_pos_as_xyz
  1  'x, y, z'
loop_
 _atom_site_type_symbol
 _atom_site_label
 _atom_site_symmetry_multiplicity
 _atom_site_fract_x
 _atom_site_fract_y
 _atom_site_fract_z
 _atom_site_occupancy
  Gd  Gd0  1  0.36159623  0.54539609  0.65660256  1
  Gd  Gd1  1  0.36173365  0.69369334  0.15040454  1
  Gd  Gd2  1  0.86127084  0.39310011  0.32038426  1
  Gd  Gd3  1  0.36186185  0.88366562  0.84663028  1
  Gd  Gd4  1  0.86163241  0.84595907  0.46838823  1
  Gd  Gd5  1  0.86170721  0.37848949  0.95491445  1
  Gd  Gd6  1  0.86178190  0.17401285  0.64871806  1
  Gd  Gd7  1  0.36132210  0.06806425  0.16346541  1
  Se  Se8  1  0.36180896  0.29902086  0.13159469  1
  Se  Se9  1  0.36113346  0.59378517  0.90752733  1
  Se  Se10  1  0.36160097  0.99277616  0.61777329  1
  Se  Se11  1  0.86156428  0.13285920  0.36982742  1
  Se  Se12  1  0.86141062  0.40382308  0.55435997  1
  Se  Se13  1  0.36252409  0.88247788  0.30437279  1
  Se  Se14  1  0.86164689  0.86167580  0.04890223  1
  Se  Se15  1  0.36173636  0.31747419  0.77534616  1
  Se  Se16  1  0.86113304  0.08734702  0.89033294  1
  Se  Se17  1  0.86200446  0.54880959  0.15322614  1
  Se  Se18  1  0.36157921  0.62398940  0.41753709  1
  Se  Se19  1  0.86152416  0.74067503  0.69665134  1
