# generated using pymatgen
data_GdCdHg2
_symmetry_space_group_name_H-M   'P 1'
_cell_length_a   5.15490484
_cell_length_b   5.15406561
_cell_length_c   5.15029097
_cell_angle_alpha   59.94624710
_cell_angle_beta   60.15742493
_cell_angle_gamma   60.00247192
_symmetry_Int_Tables_number   1
_chemical_formula_structural   GdCdHg2
_chemical_formula_sum   'Gd1 Cd1 Hg2'
_cell_volume   96.83500174
_cell_formula_units_Z   1
loop_
 _symmetry_equiv_pos_site_id
 _symmetry_equiv_pos_as_xyz
  1  'x, y, z'
loop_
 _atom_site_type_symbol
 _atom_site_label
 _atom_site_symmetry_multiplicity
 _atom_site_fract_x
 _atom_site_fract_y
 _atom_site_fract_z
 _atom_site_occupancy
  Gd  Gd0  1  0.96120346  0.91758996  0.74476826  1
  Cd  Cd1  1  0.46156764  0.41800088  0.24459413  1
  Hg  Hg2  1  0.21150029  0.16808738  0.99479198  1
  Hg  Hg3  1  0.71163404  0.66770244  0.49483576  1
