# generated using pymatgen
data_GdEr4Al15
_symmetry_space_group_name_H-M   'P 1'
_cell_length_a   6.12096357
_cell_length_b   6.12171984
_cell_length_c   12.20987320
_cell_angle_alpha   75.18357086
_cell_angle_beta   75.17655182
_cell_angle_gamma   59.92115784
_symmetry_Int_Tables_number   1
_chemical_formula_structural   GdEr4Al15
_chemical_formula_sum   'Gd1 Er4 Al15'
_cell_volume   378.25610702
_cell_formula_units_Z   1
loop_
 _symmetry_equiv_pos_site_id
 _symmetry_equiv_pos_as_xyz
  1  'x, y, z'
loop_
 _atom_site_type_symbol
 _atom_site_label
 _atom_site_symmetry_multiplicity
 _atom_site_fract_x
 _atom_site_fract_y
 _atom_site_fract_z
 _atom_site_occupancy
  Gd  Gd0  1  0.44179854  0.63203889  0.73471111  1
  Er  Er1  1  0.04099925  0.23738942  0.92930639  1
  Er  Er2  1  0.57205409  0.76412410  0.33801788  1
  Er  Er3  1  0.17543256  0.37011147  0.53209555  1
  Er  Er4  1  0.30714679  0.50096250  0.13220404  1
  Al  Al5  1  0.80853671  0.50225610  0.13264406  1
  Al  Al6  1  0.05900509  0.24529198  0.33344716  1
  Al  Al7  1  0.69198376  0.88547713  0.53118932  1
  Al  Al8  1  0.80806786  0.99722832  0.13284707  1
  Al  Al9  1  0.00941308  0.74997920  0.93363160  1
  Al  Al10  1  0.14339645  0.88769966  0.53153104  1
  Al  Al11  1  0.92567444  0.11511721  0.73539817  1
  Al  Al12  1  0.92520851  0.66686273  0.73523915  1
  Al  Al13  1  0.55653423  0.20048693  0.93416601  1
  Al  Al14  1  0.69112021  0.33974302  0.53124386  1
  Al  Al15  1  0.05920802  0.79065257  0.33322445  1
  Al  Al16  1  0.30693391  0.99741578  0.13246946  1
  Al  Al17  1  0.60788393  0.24624337  0.33281282  1
  Al  Al18  1  0.55759430  0.74977905  0.93452859  1
  Al  Al19  1  0.46874392  0.11515224  0.73532653  1
