# generated using pymatgen
data_GdIn
_symmetry_space_group_name_H-M   'P 1'
_cell_length_a   3.80820751
_cell_length_b   3.81559801
_cell_length_c   3.81993747
_cell_angle_alpha   89.58607483
_cell_angle_beta   90.03993225
_cell_angle_gamma   90.02220917
_symmetry_Int_Tables_number   1
_chemical_formula_structural   GdIn
_chemical_formula_sum   'Gd1 In1'
_cell_volume   55.50447538
_cell_formula_units_Z   1
loop_
 _symmetry_equiv_pos_site_id
 _symmetry_equiv_pos_as_xyz
  1  'x, y, z'
loop_
 _atom_site_type_symbol
 _atom_site_label
 _atom_site_symmetry_multiplicity
 _atom_site_fract_x
 _atom_site_fract_y
 _atom_site_fract_z
 _atom_site_occupancy
  Gd  Gd0  1  0.56786174  0.65512055  0.34891915  1
  In  In1  1  0.06799232  0.15507096  0.84853411  1
