# generated using pymatgen
data_GdTe
_symmetry_space_group_name_H-M   'P 1'
_cell_length_a   3.91463089
_cell_length_b   3.87533283
_cell_length_c   3.83429694
_cell_angle_alpha   90.12015533
_cell_angle_beta   90.36511993
_cell_angle_gamma   90.29954529
_symmetry_Int_Tables_number   1
_chemical_formula_structural   GdTe
_chemical_formula_sum   'Gd1 Te1'
_cell_volume   58.16608459
_cell_formula_units_Z   1
loop_
 _symmetry_equiv_pos_site_id
 _symmetry_equiv_pos_as_xyz
  1  'x, y, z'
loop_
 _atom_site_type_symbol
 _atom_site_label
 _atom_site_symmetry_multiplicity
 _atom_site_fract_x
 _atom_site_fract_y
 _atom_site_fract_z
 _atom_site_occupancy
  Gd  Gd0  1  0.32429761  0.85154009  0.18927902  1
  Te  Te1  1  0.82472962  0.35124820  0.68883586  1
