# generated using pymatgen
data_Ge2N2O
_symmetry_space_group_name_H-M   'P 1'
_cell_length_a   5.20160866
_cell_length_b   5.56510258
_cell_length_c   5.57246971
_cell_angle_alpha   119.64557648
_cell_angle_beta   90.53248596
_cell_angle_gamma   90.41814423
_symmetry_Int_Tables_number   1
_chemical_formula_structural   Ge2N2O
_chemical_formula_sum   'Ge4 N4 O2'
_cell_volume   140.17473658
_cell_formula_units_Z   2
loop_
 _symmetry_equiv_pos_site_id
 _symmetry_equiv_pos_as_xyz
  1  'x, y, z'
loop_
 _atom_site_type_symbol
 _atom_site_label
 _atom_site_symmetry_multiplicity
 _atom_site_fract_x
 _atom_site_fract_y
 _atom_site_fract_z
 _atom_site_occupancy
  Ge  Ge0  1  0.48459297  0.04080055  0.93026614  1
  Ge  Ge1  1  0.48439115  0.71928543  0.27638200  1
  Ge  Ge2  1  0.98668557  0.04979975  0.60895348  1
  Ge  Ge3  1  0.98501182  0.71353912  0.93307930  1
  N  N4  1  0.82599121  0.96451306  0.85262197  1
  N  N5  1  0.32675171  0.79476732  0.02726343  1
  N  N6  1  0.32985699  0.96803194  0.58986074  1
  N  N7  1  0.92899996  0.38712639  0.68204987  1
  O  O8  1  0.42944410  0.36932167  0.18165646  1
  O  O9  1  0.83059126  0.79107356  0.27602759  1
