# generated using pymatgen
data_GeMo3
_symmetry_space_group_name_H-M   'P 1'
_cell_length_a   4.97214699
_cell_length_b   4.95128870
_cell_length_c   4.98122597
_cell_angle_alpha   89.82106781
_cell_angle_beta   89.85274506
_cell_angle_gamma   89.97215271
_symmetry_Int_Tables_number   1
_chemical_formula_structural   GeMo3
_chemical_formula_sum   'Ge2 Mo6'
_cell_volume   122.62946979
_cell_formula_units_Z   2
loop_
 _symmetry_equiv_pos_site_id
 _symmetry_equiv_pos_as_xyz
  1  'x, y, z'
loop_
 _atom_site_type_symbol
 _atom_site_label
 _atom_site_symmetry_multiplicity
 _atom_site_fract_x
 _atom_site_fract_y
 _atom_site_fract_z
 _atom_site_occupancy
  Ge  Ge0  1  0.56045270  0.99217802  0.80705398  1
  Ge  Ge1  1  0.05955058  0.49223688  0.30636650  1
  Mo  Mo2  1  0.80900353  0.49241075  0.80705404  1
  Mo  Mo3  1  0.05920336  0.99240345  0.05739887  1
  Mo  Mo4  1  0.30874252  0.49288017  0.80639869  1
  Mo  Mo5  1  0.55957812  0.74220294  0.30727658  1
  Mo  Mo6  1  0.05884778  0.99293953  0.55521399  1
  Mo  Mo7  1  0.55867726  0.24197474  0.30772141  1
