# generated using pymatgen
data_Hf2AlSi
_symmetry_space_group_name_H-M   'P 1'
_cell_length_a   4.67863512
_cell_length_b   4.67723751
_cell_length_c   4.67114878
_cell_angle_alpha   59.77812958
_cell_angle_beta   59.95159149
_cell_angle_gamma   59.91487122
_symmetry_Int_Tables_number   1
_chemical_formula_structural   Hf2AlSi
_chemical_formula_sum   'Hf2 Al1 Si1'
_cell_volume   72.08520456
_cell_formula_units_Z   1
loop_
 _symmetry_equiv_pos_site_id
 _symmetry_equiv_pos_as_xyz
  1  'x, y, z'
loop_
 _atom_site_type_symbol
 _atom_site_label
 _atom_site_symmetry_multiplicity
 _atom_site_fract_x
 _atom_site_fract_y
 _atom_site_fract_z
 _atom_site_occupancy
  Hf  Hf0  1  0.60075110  0.06143721  0.52853948  1
  Hf  Hf1  1  0.10054527  0.56123215  0.02805496  1
  Al  Al2  1  0.85079479  0.31217578  0.77762628  1
  Si  Si3  1  0.35069519  0.81211251  0.27811402  1
