# generated using pymatgen
data_Hf2Se3
_symmetry_space_group_name_H-M   'P 1'
_cell_length_a   6.37513113
_cell_length_b   8.59744549
_cell_length_c   8.60902214
_cell_angle_alpha   89.87112427
_cell_angle_beta   92.86747742
_cell_angle_gamma   95.95251465
_symmetry_Int_Tables_number   1
_chemical_formula_structural   Hf2Se3
_chemical_formula_sum   'Hf8 Se12'
_cell_volume   468.72529542
_cell_formula_units_Z   4
loop_
 _symmetry_equiv_pos_site_id
 _symmetry_equiv_pos_as_xyz
  1  'x, y, z'
loop_
 _atom_site_type_symbol
 _atom_site_label
 _atom_site_symmetry_multiplicity
 _atom_site_fract_x
 _atom_site_fract_y
 _atom_site_fract_z
 _atom_site_occupancy
  Hf  Hf0  1  0.51444227  0.80043358  0.97334689  1
  Hf  Hf1  1  0.76355034  0.55624032  0.71443760  1
  Hf  Hf2  1  0.01394586  0.97341031  0.80373877  1
  Hf  Hf3  1  0.76389205  0.21448906  0.06007329  1
  Hf  Hf4  1  0.26289409  0.71965241  0.54431987  1
  Hf  Hf5  1  0.51524055  0.13512494  0.62405145  1
  Hf  Hf6  1  0.26292026  0.38732094  0.89144975  1
  Hf  Hf7  1  0.01428732  0.63111442  0.14168179  1
  Se  Se8  1  0.14326836  0.68065405  0.84295112  1
  Se  Se9  1  0.39461580  0.09660378  0.92921543  1
  Se  Se10  1  0.64254171  0.50962305  0.01628870  1
  Se  Se11  1  0.39515743  0.43045962  0.58823669  1
  Se  Se12  1  0.64450091  0.17975466  0.34317431  1
  Se  Se13  1  0.89628649  0.59702474  0.42809057  1
  Se  Se14  1  0.39299345  0.76155478  0.25796783  1
  Se  Se15  1  0.64310551  0.84553504  0.66936648  1
  Se  Se16  1  0.89321971  0.92498147  0.09878697  1
  Se  Se17  1  0.89363796  0.26328394  0.75605214  1
  Se  Se18  1  0.14285435  0.34145075  0.18342783  1
  Se  Se19  1  0.14203238  0.01360695  0.50735974  1
