# generated using pymatgen
data_HfAlCu
_symmetry_space_group_name_H-M   'P 1'
_cell_length_a   5.13561058
_cell_length_b   5.13571930
_cell_length_c   8.31797695
_cell_angle_alpha   89.99074554
_cell_angle_beta   89.89779663
_cell_angle_gamma   119.40686035
_symmetry_Int_Tables_number   1
_chemical_formula_structural   HfAlCu
_chemical_formula_sum   'Hf4 Al4 Cu4'
_cell_volume   191.11973036
_cell_formula_units_Z   4
loop_
 _symmetry_equiv_pos_site_id
 _symmetry_equiv_pos_as_xyz
  1  'x, y, z'
loop_
 _atom_site_type_symbol
 _atom_site_label
 _atom_site_symmetry_multiplicity
 _atom_site_fract_x
 _atom_site_fract_y
 _atom_site_fract_z
 _atom_site_occupancy
  Hf  Hf0  1  0.99307662  0.03833305  0.26691276  1
  Hf  Hf1  1  0.32645464  0.70478302  0.75039995  1
  Hf  Hf2  1  0.99285412  0.03812309  0.87260598  1
  Hf  Hf3  1  0.32651299  0.70451260  0.38731632  1
  Al  Al4  1  0.00471766  0.53950864  0.07012574  1
  Al  Al5  1  0.49174154  0.02508978  0.06917100  1
  Al  Al6  1  0.65327376  0.37809575  0.80946946  1
  Al  Al7  1  0.65408415  0.37656385  0.33159909  1
  Cu  Cu8  1  0.49217227  0.53929406  0.06960884  1
  Cu  Cu9  1  0.83142948  0.71504557  0.56975061  1
  Cu  Cu10  1  0.31717926  0.19945294  0.56936961  1
  Cu  Cu11  1  0.83003825  0.20181654  0.56923848  1
