# generated using pymatgen
data_HfFeGe
_symmetry_space_group_name_H-M   'P 1'
_cell_length_a   3.83830309
_cell_length_b   6.46539831
_cell_length_c   6.48083210
_cell_angle_alpha   119.56467438
_cell_angle_beta   89.82291412
_cell_angle_gamma   89.94496155
_symmetry_Int_Tables_number   1
_chemical_formula_structural   HfFeGe
_chemical_formula_sum   'Hf3 Fe3 Ge3'
_cell_volume   139.88802193
_cell_formula_units_Z   3
loop_
 _symmetry_equiv_pos_site_id
 _symmetry_equiv_pos_as_xyz
  1  'x, y, z'
loop_
 _atom_site_type_symbol
 _atom_site_label
 _atom_site_symmetry_multiplicity
 _atom_site_fract_x
 _atom_site_fract_y
 _atom_site_fract_z
 _atom_site_occupancy
  Hf  Hf0  1  0.64178616  0.42664108  0.68544614  1
  Hf  Hf1  1  0.64167726  0.84505725  0.26174989  1
  Hf  Hf2  1  0.64203185  0.01023354  0.84457207  1
  Fe  Fe3  1  0.14204375  0.42841879  0.02756910  1
  Fe  Fe4  1  0.14203711  0.66591895  0.50079787  1
  Fe  Fe5  1  0.14196849  0.19175071  0.26144740  1
  Ge  Ge6  1  0.14214933  0.76235074  0.92963195  1
  Ge  Ge7  1  0.64196974  0.42734769  0.26261365  1
  Ge  Ge8  1  0.14181244  0.09377872  0.59483081  1
