# generated using pymatgen
data_HfGaRu2
_symmetry_space_group_name_H-M   'P 1'
_cell_length_a   4.44760656
_cell_length_b   4.45285416
_cell_length_c   4.45434284
_cell_angle_alpha   59.67202759
_cell_angle_beta   59.57073593
_cell_angle_gamma   59.76165390
_symmetry_Int_Tables_number   1
_chemical_formula_structural   HfGaRu2
_chemical_formula_sum   'Hf1 Ga1 Ru2'
_cell_volume   61.90763282
_cell_formula_units_Z   1
loop_
 _symmetry_equiv_pos_site_id
 _symmetry_equiv_pos_as_xyz
  1  'x, y, z'
loop_
 _atom_site_type_symbol
 _atom_site_label
 _atom_site_symmetry_multiplicity
 _atom_site_fract_x
 _atom_site_fract_y
 _atom_site_fract_z
 _atom_site_occupancy
  Hf  Hf0  1  0.40871960  0.02389854  0.28312549  1
  Ga  Ga1  1  0.90880352  0.52398479  0.78349483  1
  Ru  Ru2  1  0.15896350  0.77399820  0.03318869  1
  Ru  Ru3  1  0.65863103  0.27440938  0.53344035  1
