# generated using pymatgen
data_HfMgN2
_symmetry_space_group_name_H-M   'P 1'
_cell_length_a   5.50453568
_cell_length_b   5.55482483
_cell_length_c   6.39147520
_cell_angle_alpha   89.97176361
_cell_angle_beta   89.93099976
_cell_angle_gamma   69.29292297
_symmetry_Int_Tables_number   1
_chemical_formula_structural   HfMgN2
_chemical_formula_sum   'Hf4 Mg4 N8'
_cell_volume   182.80555353
_cell_formula_units_Z   4
loop_
 _symmetry_equiv_pos_site_id
 _symmetry_equiv_pos_as_xyz
  1  'x, y, z'
loop_
 _atom_site_type_symbol
 _atom_site_label
 _atom_site_symmetry_multiplicity
 _atom_site_fract_x
 _atom_site_fract_y
 _atom_site_fract_z
 _atom_site_occupancy
  Hf  Hf0  1  0.96437502  0.75266057  0.91952819  1
  Hf  Hf1  1  0.96412057  0.25244775  0.65983534  1
  Hf  Hf2  1  0.96458656  0.25305131  0.17954920  1
  Hf  Hf3  1  0.46448702  0.25243437  0.92012203  1
  Mg  Mg4  1  0.46431723  0.25281703  0.41983673  1
  Mg  Mg5  1  0.46376875  0.75238347  0.17968062  1
  Mg  Mg6  1  0.96449947  0.75380856  0.41999766  1
  Mg  Mg7  1  0.46424362  0.75293273  0.65797120  1
  N  N8  1  0.71634918  0.00668344  0.67920685  1
  N  N9  1  0.21621451  0.50185466  0.15746801  1
  N  N10  1  0.20695744  0.00867834  0.92019492  1
  N  N11  1  0.21771935  0.50044686  0.67889428  1
  N  N12  1  0.72373849  0.49534756  0.92052609  1
  N  N13  1  0.20610927  0.01041329  0.42010760  1
  N  N14  1  0.72371972  0.49811909  0.42072439  1
  N  N15  1  0.71653664  0.00811247  0.15795588  1
