# generated using pymatgen
data_HfSnRh
_symmetry_space_group_name_H-M   'P 1'
_cell_length_a   3.54498076
_cell_length_b   7.53159904
_cell_length_c   7.52491951
_cell_angle_alpha   120.20785522
_cell_angle_beta   89.91740417
_cell_angle_gamma   90.12127686
_symmetry_Int_Tables_number   1
_chemical_formula_structural   HfSnRh
_chemical_formula_sum   'Hf3 Sn3 Rh3'
_cell_volume   173.62773954
_cell_formula_units_Z   3
loop_
 _symmetry_equiv_pos_site_id
 _symmetry_equiv_pos_as_xyz
  1  'x, y, z'
loop_
 _atom_site_type_symbol
 _atom_site_label
 _atom_site_symmetry_multiplicity
 _atom_site_fract_x
 _atom_site_fract_y
 _atom_site_fract_z
 _atom_site_occupancy
  Hf  Hf0  1  0.74780118  0.11844563  0.94742787  1
  Hf  Hf1  1  0.74788922  0.72140110  0.16006370  1
  Hf  Hf2  1  0.74755752  0.32375032  0.55422467  1
  Sn  Sn3  1  0.24776492  0.45031881  0.28268072  1
  Sn  Sn4  1  0.24796994  0.72101325  0.82645953  1
  Sn  Sn5  1  0.24780113  0.98994261  0.55430126  1
  Rh  Rh6  1  0.24815477  0.38713062  0.88672405  1
  Rh  Rh7  1  0.74799001  0.72097015  0.55507880  1
  Rh  Rh8  1  0.24801156  0.05422050  0.22126670  1
