# generated using pymatgen
data_HfZr3
_symmetry_space_group_name_H-M   'P 1'
_cell_length_a   5.07212830
_cell_length_b   6.47947598
_cell_length_c   6.43860054
_cell_angle_alpha   60.20223999
_cell_angle_beta   90.11885071
_cell_angle_gamma   90.03353119
_symmetry_Int_Tables_number   1
_chemical_formula_structural   HfZr3
_chemical_formula_sum   'Hf2 Zr6'
_cell_volume   183.62537005
_cell_formula_units_Z   2
loop_
 _symmetry_equiv_pos_site_id
 _symmetry_equiv_pos_as_xyz
  1  'x, y, z'
loop_
 _atom_site_type_symbol
 _atom_site_label
 _atom_site_symmetry_multiplicity
 _atom_site_fract_x
 _atom_site_fract_y
 _atom_site_fract_z
 _atom_site_occupancy
  Hf  Hf0  1  0.95230103  0.68226874  0.96370536  1
  Hf  Hf1  1  0.95214021  0.18140759  0.46145535  1
  Zr  Zr2  1  0.95258743  0.68258858  0.46154004  1
  Zr  Zr3  1  0.45215905  0.35050878  0.63034427  1
  Zr  Zr4  1  0.95217663  0.18223816  0.96350992  1
  Zr  Zr5  1  0.45283088  0.35113895  0.13054693  1
  Zr  Zr6  1  0.45253277  0.85010964  0.13058382  1
  Zr  Zr7  1  0.45299712  0.85147452  0.63056028  1
