# generated using pymatgen
data_HgPb2
_symmetry_space_group_name_H-M   'P 1'
_cell_length_a   3.85514975
_cell_length_b   3.81295919
_cell_length_c   7.51563072
_cell_angle_alpha   90.08069611
_cell_angle_beta   89.92935181
_cell_angle_gamma   121.09783173
_symmetry_Int_Tables_number   1
_chemical_formula_structural   HgPb2
_chemical_formula_sum   'Hg1 Pb2'
_cell_volume   94.59920789
_cell_formula_units_Z   1
loop_
 _symmetry_equiv_pos_site_id
 _symmetry_equiv_pos_as_xyz
  1  'x, y, z'
loop_
 _atom_site_type_symbol
 _atom_site_label
 _atom_site_symmetry_multiplicity
 _atom_site_fract_x
 _atom_site_fract_y
 _atom_site_fract_z
 _atom_site_occupancy
  Hg  Hg0  1  0.24129054  0.56005234  0.47125781  1
  Pb  Pb1  1  0.57449377  0.22621186  0.79504567  1
  Pb  Pb2  1  0.90673548  0.89325649  0.13567127  1
