# generated using pymatgen
data_HgS
_symmetry_space_group_name_H-M   'P 1'
_cell_length_a   4.26293612
_cell_length_b   4.27169943
_cell_length_c   6.37082577
_cell_angle_alpha   90.01544189
_cell_angle_beta   89.92922211
_cell_angle_gamma   90.58847809
_symmetry_Int_Tables_number   1
_chemical_formula_structural   HgS
_chemical_formula_sum   'Hg2 S2'
_cell_volume   116.00640964
_cell_formula_units_Z   2
loop_
 _symmetry_equiv_pos_site_id
 _symmetry_equiv_pos_as_xyz
  1  'x, y, z'
loop_
 _atom_site_type_symbol
 _atom_site_label
 _atom_site_symmetry_multiplicity
 _atom_site_fract_x
 _atom_site_fract_y
 _atom_site_fract_z
 _atom_site_occupancy
  Hg  Hg0  1  0.74036098  0.85750991  0.75118077  1
  Hg  Hg1  1  0.24165244  0.35678217  0.25270855  1
  S  S2  1  0.48364884  0.10774710  0.99983829  1
  S  S3  1  0.99033058  0.60870886  0.49797866  1
