# generated using pymatgen
data_HgSO4
_symmetry_space_group_name_H-M   'P 1'
_cell_length_a   5.05036736
_cell_length_b   5.04834461
_cell_length_c   7.77474403
_cell_angle_alpha   77.68019104
_cell_angle_beta   76.56151581
_cell_angle_gamma   66.11072540
_symmetry_Int_Tables_number   1
_chemical_formula_structural   HgSO4
_chemical_formula_sum   'Hg2 S2 O8'
_cell_volume   174.68829230
_cell_formula_units_Z   2
loop_
 _symmetry_equiv_pos_site_id
 _symmetry_equiv_pos_as_xyz
  1  'x, y, z'
loop_
 _atom_site_type_symbol
 _atom_site_label
 _atom_site_symmetry_multiplicity
 _atom_site_fract_x
 _atom_site_fract_y
 _atom_site_fract_z
 _atom_site_occupancy
  Hg  Hg0  1  0.59135890  0.20262748  0.57143253  1
  Hg  Hg1  1  0.08988909  0.70096225  0.07183708  1
  S  S2  1  0.37695026  0.98540807  0.33161503  1
  S  S3  1  0.74205005  0.49912331  0.83504534  1
  O  O4  1  0.76541197  0.80517501  0.82496667  1
  O  O5  1  0.30243495  0.90208733  0.18899444  1
  O  O6  1  0.45829657  0.44443235  0.83163506  1
  O  O7  1  0.27393296  0.30676144  0.32408059  1
  O  O8  1  0.70194423  0.89197165  0.32128754  1
  O  O9  1  0.92473030  0.39132637  0.68965518  1
  O  O10  1  0.28995129  0.89077771  0.51126182  1
  O  O11  1  0.81686777  0.39192006  0.01052956  1
