# generated using pymatgen
data_Ho2AlSi2
_symmetry_space_group_name_H-M   'P 1'
_cell_length_a   3.98389125
_cell_length_b   4.03790665
_cell_length_c   7.23904753
_cell_angle_alpha   106.01438904
_cell_angle_beta   105.67948914
_cell_angle_gamma   90.25540924
_symmetry_Int_Tables_number   1
_chemical_formula_structural   Ho2AlSi2
_chemical_formula_sum   'Ho2 Al1 Si2'
_cell_volume   107.37361784
_cell_formula_units_Z   1
loop_
 _symmetry_equiv_pos_site_id
 _symmetry_equiv_pos_as_xyz
  1  'x, y, z'
loop_
 _atom_site_type_symbol
 _atom_site_label
 _atom_site_symmetry_multiplicity
 _atom_site_fract_x
 _atom_site_fract_y
 _atom_site_fract_z
 _atom_site_occupancy
  Ho  Ho0  1  0.42748693  0.49288154  0.22535619  1
  Ho  Ho1  1  0.15471755  0.72263217  0.68464130  1
  Al  Al2  1  0.81672025  0.88857538  0.00566546  1
  Si  Si3  1  0.99757737  0.06685417  0.36973229  1
  Si  Si4  1  0.60876912  0.17355786  0.58842707  1
