# generated using pymatgen
data_Ho2Ga8Fe
_symmetry_space_group_name_H-M   'P 1'
_cell_length_a   4.27723503
_cell_length_b   4.29767370
_cell_length_c   11.33540630
_cell_angle_alpha   100.93268585
_cell_angle_beta   100.75009155
_cell_angle_gamma   89.75102997
_symmetry_Int_Tables_number   1
_chemical_formula_structural   Ho2Ga8Fe
_chemical_formula_sum   'Ho2 Ga8 Fe1'
_cell_volume   200.89298371
_cell_formula_units_Z   1
loop_
 _symmetry_equiv_pos_site_id
 _symmetry_equiv_pos_as_xyz
  1  'x, y, z'
loop_
 _atom_site_type_symbol
 _atom_site_label
 _atom_site_symmetry_multiplicity
 _atom_site_fract_x
 _atom_site_fract_y
 _atom_site_fract_z
 _atom_site_occupancy
  Ho  Ho0  1  0.25090638  0.42325479  0.75336522  1
  Ho  Ho1  1  0.99343717  0.66634125  0.23950949  1
  Ga  Ga2  1  0.15473488  0.82828224  0.56346434  1
  Ga  Ga3  1  0.65485114  0.32831821  0.56373882  1
  Ga  Ga4  1  0.57856250  0.75560838  0.41670087  1
  Ga  Ga5  1  0.91757619  0.09044254  0.08319989  1
  Ga  Ga6  1  0.50442755  0.17720048  0.26272917  1
  Ga  Ga7  1  0.34372756  0.01569794  0.94206220  1
  Ga  Ga8  1  0.75229055  0.92469084  0.75593889  1
  Ga  Ga9  1  0.84490401  0.51832289  0.94162703  1
  Fe  Fe10  1  0.09230072  0.26415899  0.44042626  1
