# generated using pymatgen
data_Ho3(Ga2Cu)2
_symmetry_space_group_name_H-M   'P 1'
_cell_length_a   4.32744122
_cell_length_b   7.43561649
_cell_length_c   11.25950718
_cell_angle_alpha   76.93601990
_cell_angle_beta   79.00775909
_cell_angle_gamma   72.73535156
_symmetry_Int_Tables_number   1
_chemical_formula_structural   Ho3(Ga2Cu)2
_chemical_formula_sum   'Ho6 Ga8 Cu4'
_cell_volume   334.03337296
_cell_formula_units_Z   2
loop_
 _symmetry_equiv_pos_site_id
 _symmetry_equiv_pos_as_xyz
  1  'x, y, z'
loop_
 _atom_site_type_symbol
 _atom_site_label
 _atom_site_symmetry_multiplicity
 _atom_site_fract_x
 _atom_site_fract_y
 _atom_site_fract_z
 _atom_site_occupancy
  Ho  Ho0  1  0.14793891  0.60095197  0.67701954  1
  Ho  Ho1  1  0.82973516  0.44867539  0.45515597  1
  Ho  Ho2  1  0.00293976  0.45211509  0.10400169  1
  Ho  Ho3  1  0.54464656  0.12457743  0.35235989  1
  Ho  Ho4  1  0.81668532  0.15584585  0.78040236  1
  Ho  Ho5  1  0.33209100  0.87623525  0.02846259  1
  Ga  Ga6  1  0.77777082  0.78444272  0.23448148  1
  Ga  Ga7  1  0.66671175  0.18249165  0.05373914  1
  Ga  Ga8  1  0.37773573  0.54192442  0.26368028  1
  Ga  Ga9  1  0.13883932  0.07621151  0.21957834  1
  Ga  Ga10  1  0.58349884  0.51797909  0.88924128  1
  Ga  Ga11  1  0.96103454  0.75790077  0.88749975  1
  Ga  Ga12  1  0.61178887  0.81399238  0.53247291  1
  Ga  Ga13  1  0.38487366  0.19717640  0.60389328  1
  Cu  Cu14  1  0.46848759  0.87257802  0.75472891  1
  Cu  Cu15  1  0.18983161  0.29677203  0.89956504  1
  Cu  Cu16  1  0.00263989  0.01494403  0.55181611  1
  Cu  Cu17  1  0.19205993  0.78347760  0.39639312  1
