# generated using pymatgen
data_Ho3Sc2S7
_symmetry_space_group_name_H-M   'P 1'
_cell_length_a   3.73110676
_cell_length_b   6.46187592
_cell_length_c   11.48515892
_cell_angle_alpha   103.97735596
_cell_angle_beta   90.22440338
_cell_angle_gamma   106.41796875
_symmetry_Int_Tables_number   1
_chemical_formula_structural   Ho3Sc2S7
_chemical_formula_sum   'Ho3 Sc2 S7'
_cell_volume   256.97505367
_cell_formula_units_Z   1
loop_
 _symmetry_equiv_pos_site_id
 _symmetry_equiv_pos_as_xyz
  1  'x, y, z'
loop_
 _atom_site_type_symbol
 _atom_site_label
 _atom_site_symmetry_multiplicity
 _atom_site_fract_x
 _atom_site_fract_y
 _atom_site_fract_z
 _atom_site_occupancy
  Ho  Ho0  1  0.12740438  0.45227331  0.79138839  1
  Ho  Ho1  1  0.71579659  0.63156039  0.17754215  1
  Ho  Ho2  1  0.32373145  0.84012556  0.55917138  1
  Sc  Sc3  1  0.02242942  0.23977385  0.36545333  1
  Sc  Sc4  1  0.90066439  0.00006819  0.94700897  1
  S  S5  1  0.05600294  0.30392861  0.15055130  1
  S  S6  1  0.75894046  0.71475428  0.72170758  1
  S  S7  1  0.36374569  0.92742288  0.31496587  1
  S  S8  1  0.97484976  0.14760837  0.57772559  1
  S  S9  1  0.27732819  0.75563776  0.01293176  1
  S  S10  1  0.67440301  0.54386771  0.41434848  1
  S  S11  1  0.50934720  0.21386316  0.87001938  1
