# generated using pymatgen
data_Ho3TmMn8
_symmetry_space_group_name_H-M   'P 1'
_cell_length_a   5.25606632
_cell_length_b   5.24466324
_cell_length_c   8.27161598
_cell_angle_alpha   89.97308350
_cell_angle_beta   89.92378235
_cell_angle_gamma   120.54129028
_symmetry_Int_Tables_number   1
_chemical_formula_structural   Ho3TmMn8
_chemical_formula_sum   'Ho3 Tm1 Mn8'
_cell_volume   196.38301316
_cell_formula_units_Z   1
loop_
 _symmetry_equiv_pos_site_id
 _symmetry_equiv_pos_as_xyz
  1  'x, y, z'
loop_
 _atom_site_type_symbol
 _atom_site_label
 _atom_site_symmetry_multiplicity
 _atom_site_fract_x
 _atom_site_fract_y
 _atom_site_fract_z
 _atom_site_occupancy
  Ho  Ho0  1  0.95407373  0.86624014  0.78591329  1
  Ho  Ho1  1  0.62125158  0.20051900  0.91126966  1
  Ho  Ho2  1  0.62100554  0.20027523  0.28636128  1
  Tm  Tm3  1  0.95394915  0.86666256  0.41130015  1
  Mn  Mn4  1  0.11975300  0.69996482  0.10272795  1
  Mn  Mn5  1  0.62323034  0.70005155  0.10189233  1
  Mn  Mn6  1  0.12007326  0.19938625  0.10184100  1
  Mn  Mn7  1  0.45558378  0.86692643  0.60040474  1
  Mn  Mn8  1  0.95565110  0.36681974  0.60014296  1
  Mn  Mn9  1  0.45570868  0.36655083  0.60064518  1
  Mn  Mn10  1  0.28709251  0.53275549  0.35108015  1
  Mn  Mn11  1  0.28733361  0.53342968  0.85062397  1
