# generated using pymatgen
data_HoAs
_symmetry_space_group_name_H-M   'P 1'
_cell_length_a   4.10177803
_cell_length_b   4.11962509
_cell_length_c   4.09813643
_cell_angle_alpha   59.99138260
_cell_angle_beta   59.95209503
_cell_angle_gamma   60.03590012
_symmetry_Int_Tables_number   1
_chemical_formula_structural   HoAs
_chemical_formula_sum   'Ho1 As1'
_cell_volume   48.95906371
_cell_formula_units_Z   1
loop_
 _symmetry_equiv_pos_site_id
 _symmetry_equiv_pos_as_xyz
  1  'x, y, z'
loop_
 _atom_site_type_symbol
 _atom_site_label
 _atom_site_symmetry_multiplicity
 _atom_site_fract_x
 _atom_site_fract_y
 _atom_site_fract_z
 _atom_site_occupancy
  Ho  Ho0  1  0.44189048  0.77814287  0.68598032  1
  As  As1  1  0.94172502  0.27794948  0.18593565  1
