# generated using pymatgen
data_HoCuGe
_symmetry_space_group_name_H-M   'P 1'
_cell_length_a   3.67224860
_cell_length_b   4.22560024
_cell_length_c   4.19643784
_cell_angle_alpha   120.38311768
_cell_angle_beta   90.19731140
_cell_angle_gamma   90.55149841
_symmetry_Int_Tables_number   1
_chemical_formula_structural   HoCuGe
_chemical_formula_sum   'Ho1 Cu1 Ge1'
_cell_volume   56.16969088
_cell_formula_units_Z   1
loop_
 _symmetry_equiv_pos_site_id
 _symmetry_equiv_pos_as_xyz
  1  'x, y, z'
loop_
 _atom_site_type_symbol
 _atom_site_label
 _atom_site_symmetry_multiplicity
 _atom_site_fract_x
 _atom_site_fract_y
 _atom_site_fract_z
 _atom_site_occupancy
  Ho  Ho0  1  0.62565643  0.90038508  0.73442870  1
  Cu  Cu1  1  0.12618232  0.23327446  0.40092710  1
  Ge  Ge2  1  0.12596251  0.56749684  0.06711604  1
