# generated using pymatgen
data_HoMg(FeO3)2
_symmetry_space_group_name_H-M   'P 1'
_cell_length_a   5.24376583
_cell_length_b   5.50280142
_cell_length_c   7.50401497
_cell_angle_alpha   89.88881683
_cell_angle_beta   89.99118042
_cell_angle_gamma   90.18586731
_symmetry_Int_Tables_number   1
_chemical_formula_structural   HoMg(FeO3)2
_chemical_formula_sum   'Ho2 Mg2 Fe4 O12'
_cell_volume   216.52981914
_cell_formula_units_Z   2
loop_
 _symmetry_equiv_pos_site_id
 _symmetry_equiv_pos_as_xyz
  1  'x, y, z'
loop_
 _atom_site_type_symbol
 _atom_site_label
 _atom_site_symmetry_multiplicity
 _atom_site_fract_x
 _atom_site_fract_y
 _atom_site_fract_z
 _atom_site_occupancy
  Ho  Ho0  1  0.56376600  0.68677306  0.40484476  1
  Ho  Ho1  1  0.06493154  0.32892489  0.90446669  1
  Mg  Mg2  1  0.51596373  0.82813311  0.90243912  1
  Mg  Mg3  1  0.01537773  0.18865192  0.40437266  1
  Fe  Fe4  1  0.54244852  0.25054458  0.65522408  1
  Fe  Fe5  1  0.04200824  0.76607049  0.15543529  1
  Fe  Fe6  1  0.04161347  0.76714939  0.65536070  1
  Fe  Fe7  1  0.54206771  0.25081223  0.15526913  1
  O  O8  1  0.85322958  0.45016205  0.22056639  1
  O  O9  1  0.35521898  0.57256764  0.08810226  1
  O  O10  1  0.90000647  0.70412147  0.90423596  1
  O  O11  1  0.16050646  0.81877393  0.40544865  1
  O  O12  1  0.40048766  0.30674729  0.40241092  1
  O  O13  1  0.85498953  0.45276874  0.58845234  1
  O  O14  1  0.65926087  0.19811949  0.90563440  1
  O  O15  1  0.24191742  0.05979184  0.08556280  1
  O  O16  1  0.74150294  0.95612681  0.58762819  1
  O  O17  1  0.73967606  0.95878106  0.22239135  1
  O  O18  1  0.24005389  0.06158182  0.72274703  1
  O  O19  1  0.35376823  0.57144213  0.72081506  1
