# generated using pymatgen
data_HoOF
_symmetry_space_group_name_H-M   'P 1'
_cell_length_a   3.79582882
_cell_length_b   3.78315353
_cell_length_c   6.74215078
_cell_angle_alpha   73.83332825
_cell_angle_beta   73.97568512
_cell_angle_gamma   60.24218369
_symmetry_Int_Tables_number   1
_chemical_formula_structural   HoOF
_chemical_formula_sum   'Ho2 O2 F2'
_cell_volume   79.61664601
_cell_formula_units_Z   2
loop_
 _symmetry_equiv_pos_site_id
 _symmetry_equiv_pos_as_xyz
  1  'x, y, z'
loop_
 _atom_site_type_symbol
 _atom_site_label
 _atom_site_symmetry_multiplicity
 _atom_site_fract_x
 _atom_site_fract_y
 _atom_site_fract_z
 _atom_site_occupancy
  Ho  Ho0  1  0.60084009  0.28838181  0.90314353  1
  Ho  Ho1  1  0.08527472  0.77325785  0.45281038  1
  O  O2  1  0.71671879  0.40571773  0.55429602  1
  O  O3  1  0.29422134  0.98239684  0.81063527  1
  F  F4  1  0.47005036  0.15965846  0.28216276  1
  F  F5  1  0.87721473  0.56304967  0.07147855  1
