# generated using pymatgen
data_HoPaOs2
_symmetry_space_group_name_H-M   'P 1'
_cell_length_a   4.83949471
_cell_length_b   4.82329035
_cell_length_c   4.81035757
_cell_angle_alpha   59.61447144
_cell_angle_beta   59.67969131
_cell_angle_gamma   59.89486694
_symmetry_Int_Tables_number   1
_chemical_formula_structural   HoPaOs2
_chemical_formula_sum   'Ho1 Pa1 Os2'
_cell_volume   78.90882528
_cell_formula_units_Z   1
loop_
 _symmetry_equiv_pos_site_id
 _symmetry_equiv_pos_as_xyz
  1  'x, y, z'
loop_
 _atom_site_type_symbol
 _atom_site_label
 _atom_site_symmetry_multiplicity
 _atom_site_fract_x
 _atom_site_fract_y
 _atom_site_fract_z
 _atom_site_occupancy
  Ho  Ho0  1  0.36030215  0.35427853  0.93188554  1
  Pa  Pa1  1  0.85980725  0.85502690  0.43155980  1
  Os  Os2  1  0.60986185  0.60554028  0.18098839  1
  Os  Os3  1  0.11006021  0.10518150  0.68121541  1
