# generated using pymatgen
data_HoScO3
_symmetry_space_group_name_H-M   'P 1'
_cell_length_a   5.45052719
_cell_length_b   5.74180412
_cell_length_c   8.01587772
_cell_angle_alpha   89.82902527
_cell_angle_beta   89.76845551
_cell_angle_gamma   90.01848602
_symmetry_Int_Tables_number   1
_chemical_formula_structural   HoScO3
_chemical_formula_sum   'Ho4 Sc4 O12'
_cell_volume   250.86060355
_cell_formula_units_Z   4
loop_
 _symmetry_equiv_pos_site_id
 _symmetry_equiv_pos_as_xyz
  1  'x, y, z'
loop_
 _atom_site_type_symbol
 _atom_site_label
 _atom_site_symmetry_multiplicity
 _atom_site_fract_x
 _atom_site_fract_y
 _atom_site_fract_z
 _atom_site_occupancy
  Ho  Ho0  1  0.63136703  0.32183984  0.74243969  1
  Ho  Ho1  1  0.13229766  0.82487988  0.24227825  1
  Ho  Ho2  1  0.11616978  0.38065550  0.49128094  1
  Ho  Ho3  1  0.61574602  0.76846594  0.99251378  1
  Sc  Sc4  1  0.63170928  0.32412997  0.24208447  1
  Sc  Sc5  1  0.13178618  0.82526559  0.74191511  1
  Sc  Sc6  1  0.14703324  0.26998746  0.99352807  1
  Sc  Sc7  1  0.64752877  0.87991977  0.49207449  1
  O  O8  1  0.81779426  0.64881283  0.66734356  1
  O  O9  1  0.95070511  0.13036498  0.66291100  1
  O  O10  1  0.29784957  0.51171619  0.82523346  1
  O  O11  1  0.29106838  0.75059664  0.50244254  1
  O  O12  1  0.99331105  0.91178185  0.98329949  1
  O  O13  1  0.79135752  0.39892197  0.00211346  1
  O  O14  1  0.45006186  0.02335808  0.16439033  1
  O  O15  1  0.49245104  0.24562426  0.48383752  1
  O  O16  1  0.31833261  0.50160074  0.16781597  1
  O  O17  1  0.79904276  0.63687682  0.32310006  1
  O  O18  1  0.43399245  0.00193524  0.81333208  1
  O  O19  1  0.93523234  0.14358571  0.31390330  1
