# generated using pymatgen
data_HoSnAu2
_symmetry_space_group_name_H-M   'P 1'
_cell_length_a   4.93033075
_cell_length_b   4.94143677
_cell_length_c   4.90422726
_cell_angle_alpha   59.27585602
_cell_angle_beta   59.61494827
_cell_angle_gamma   59.82550049
_symmetry_Int_Tables_number   1
_chemical_formula_structural   HoSnAu2
_chemical_formula_sum   'Ho1 Sn1 Au2'
_cell_volume   83.66024049
_cell_formula_units_Z   1
loop_
 _symmetry_equiv_pos_site_id
 _symmetry_equiv_pos_as_xyz
  1  'x, y, z'
loop_
 _atom_site_type_symbol
 _atom_site_label
 _atom_site_symmetry_multiplicity
 _atom_site_fract_x
 _atom_site_fract_y
 _atom_site_fract_z
 _atom_site_occupancy
  Ho  Ho0  1  0.21832988  0.65452272  0.96865958  1
  Sn  Sn1  1  0.71840602  0.15501663  0.46860743  1
  Au  Au2  1  0.96854973  0.40466678  0.71914554  1
  Au  Au3  1  0.46842220  0.90480566  0.21932440  1
