# generated using pymatgen
data_HoTe
_symmetry_space_group_name_H-M   'P 1'
_cell_length_a   4.30939388
_cell_length_b   4.31638956
_cell_length_c   4.34214211
_cell_angle_alpha   60.02725983
_cell_angle_beta   60.23311615
_cell_angle_gamma   60.06785583
_symmetry_Int_Tables_number   1
_chemical_formula_structural   HoTe
_chemical_formula_sum   'Ho1 Te1'
_cell_volume   57.25296184
_cell_formula_units_Z   1
loop_
 _symmetry_equiv_pos_site_id
 _symmetry_equiv_pos_as_xyz
  1  'x, y, z'
loop_
 _atom_site_type_symbol
 _atom_site_label
 _atom_site_symmetry_multiplicity
 _atom_site_fract_x
 _atom_site_fract_y
 _atom_site_fract_z
 _atom_site_occupancy
  Ho  Ho0  1  0.24824096  0.35025376  0.38420293  1
  Te  Te1  1  0.74829113  0.84971493  0.88418293  1
