# generated using pymatgen
data_HPbClO
_symmetry_space_group_name_H-M   'P 1'
_cell_length_a   4.52085066
_cell_length_b   7.72439432
_cell_length_c   8.60959339
_cell_angle_alpha   90.22717285
_cell_angle_beta   89.92282867
_cell_angle_gamma   89.95421600
_symmetry_Int_Tables_number   1
_chemical_formula_structural   HPbClO
_chemical_formula_sum   'H4 Pb4 Cl4 O4'
_cell_volume   300.65144114
_cell_formula_units_Z   4
loop_
 _symmetry_equiv_pos_site_id
 _symmetry_equiv_pos_as_xyz
  1  'x, y, z'
loop_
 _atom_site_type_symbol
 _atom_site_label
 _atom_site_symmetry_multiplicity
 _atom_site_fract_x
 _atom_site_fract_y
 _atom_site_fract_z
 _atom_site_occupancy
  H  H0  1  0.02633256  0.95974314  0.25954750  1
  H  H1  1  0.73039746  0.46136132  0.65592861  1
  H  H2  1  0.72876203  0.95952129  0.26029333  1
  H  H3  1  0.30409974  0.43947417  0.74618655  1
  Pb  Pb4  1  0.41040239  0.32515693  0.05934657  1
  Pb  Pb5  1  0.90994000  0.66500115  0.87684482  1
  Pb  Pb6  1  0.91197675  0.11861074  0.56368023  1
  Pb  Pb7  1  0.90961248  0.62089306  0.37345329  1
  Cl  Cl8  1  0.41017440  0.31555027  0.39127252  1
  Cl  Cl9  1  0.41000935  0.81881404  0.59851688  1
  Cl  Cl10  1  0.91075617  0.08554832  0.89854646  1
  Cl  Cl11  1  0.40954375  0.78041637  0.14561911  1
  O  O12  1  0.90941232  0.46075672  0.64564675  1
  O  O13  1  0.90803605  0.96121156  0.33169991  1
  O  O14  1  0.40776300  0.47573632  0.83279401  1
  O  O15  1  0.91044861  0.46263564  0.09115805  1
