# generated using pymatgen
data_HPbIO
_symmetry_space_group_name_H-M   'P 1'
_cell_length_a   4.33853102
_cell_length_b   8.38013649
_cell_length_c   11.47004795
_cell_angle_alpha   90.61093903
_cell_angle_beta   90.06858063
_cell_angle_gamma   90.19995117
_symmetry_Int_Tables_number   1
_chemical_formula_structural   HPbIO
_chemical_formula_sum   'H4 Pb4 I4 O4'
_cell_volume   416.99549914
_cell_formula_units_Z   4
loop_
 _symmetry_equiv_pos_site_id
 _symmetry_equiv_pos_as_xyz
  1  'x, y, z'
loop_
 _atom_site_type_symbol
 _atom_site_label
 _atom_site_symmetry_multiplicity
 _atom_site_fract_x
 _atom_site_fract_y
 _atom_site_fract_z
 _atom_site_occupancy
  H  H0  1  0.42412418  0.37812343  0.88418996  1
  H  H1  1  0.92394328  0.67247295  0.88176858  1
  H  H2  1  0.42430028  0.78686106  0.38332590  1
  H  H3  1  0.42437565  0.99281090  0.38359347  1
  Pb  Pb4  1  0.92323023  0.92923033  0.20247912  1
  Pb  Pb5  1  0.92299956  0.42050412  0.70204747  1
  Pb  Pb6  1  0.42344102  0.83140749  0.73684382  1
  Pb  Pb7  1  0.42276224  0.33051401  0.23754652  1
  I  I8  1  0.42305547  0.53988701  0.49065498  1
  I  I9  1  0.42326510  0.04100990  0.99102026  1
  I  I10  1  0.92334336  0.04895967  0.58608216  1
  I  I11  1  0.92330444  0.54729015  0.08565596  1
  O  O12  1  0.92403108  0.19404478  0.26033953  1
  O  O13  1  0.42350072  0.90507716  0.31829923  1
  O  O14  1  0.42308360  0.41201940  0.80997676  1
  O  O15  1  0.92369121  0.69337380  0.77775240  1
