# generated using pymatgen
data_In2AgSe4
_symmetry_space_group_name_H-M   'P 1'
_cell_length_a   5.94951391
_cell_length_b   5.98707390
_cell_length_c   7.19459057
_cell_angle_alpha   114.54123688
_cell_angle_beta   114.58221436
_cell_angle_gamma   90.12215424
_symmetry_Int_Tables_number   1
_chemical_formula_structural   In2AgSe4
_chemical_formula_sum   'In2 Ag1 Se4'
_cell_volume   207.19920416
_cell_formula_units_Z   1
loop_
 _symmetry_equiv_pos_site_id
 _symmetry_equiv_pos_as_xyz
  1  'x, y, z'
loop_
 _atom_site_type_symbol
 _atom_site_label
 _atom_site_symmetry_multiplicity
 _atom_site_fract_x
 _atom_site_fract_y
 _atom_site_fract_z
 _atom_site_occupancy
  In  In0  1  0.43825689  0.35830417  0.26621553  1
  In  In1  1  0.18754426  0.60930616  0.76533657  1
  Ag  Ag2  1  0.68656933  0.10720441  0.76527315  1
  Se  Se3  1  0.28701156  0.73447579  0.49937606  1
  Se  Se4  1  0.82020056  0.21127415  0.49890500  1
  Se  Se5  1  0.58871710  0.51438469  0.03024406  1
  Se  Se6  1  0.05225656  0.97618806  0.03370049  1
