# generated using pymatgen
data_InAgSe2
_symmetry_space_group_name_H-M   'P 1'
_cell_length_a   6.19770193
_cell_length_b   6.19498253
_cell_length_c   7.46990824
_cell_angle_alpha   114.57880402
_cell_angle_beta   114.49925995
_cell_angle_gamma   89.92466736
_symmetry_Int_Tables_number   1
_chemical_formula_structural   InAgSe2
_chemical_formula_sum   'In2 Ag2 Se4'
_cell_volume   232.20213562
_cell_formula_units_Z   2
loop_
 _symmetry_equiv_pos_site_id
 _symmetry_equiv_pos_as_xyz
  1  'x, y, z'
loop_
 _atom_site_type_symbol
 _atom_site_label
 _atom_site_symmetry_multiplicity
 _atom_site_fract_x
 _atom_site_fract_y
 _atom_site_fract_z
 _atom_site_occupancy
  In  In0  1  0.08698149  0.27514184  0.01305779  1
  In  In1  1  0.58686596  0.77526653  0.01309226  1
  Ag  Ag2  1  0.33772320  0.02580733  0.51371890  1
  Ag  Ag3  1  0.83697146  0.52656549  0.51389247  1
  Se  Se4  1  0.71254706  0.40037581  0.76419950  1
  Se  Se5  1  0.96224391  0.14904961  0.26428095  1
  Se  Se6  1  0.46210608  0.64912224  0.26470912  1
  Se  Se7  1  0.21223018  0.89988601  0.76422352  1
