# generated using pymatgen
data_InGa(AgTe2)2
_symmetry_space_group_name_H-M   'P 1'
_cell_length_a   6.44274235
_cell_length_b   6.45008421
_cell_length_c   7.86073637
_cell_angle_alpha   114.30603790
_cell_angle_beta   114.31626892
_cell_angle_gamma   90.05345917
_symmetry_Int_Tables_number   1
_chemical_formula_structural   InGa(AgTe2)2
_chemical_formula_sum   'In1 Ga1 Ag2 Te4'
_cell_volume   265.52315034
_cell_formula_units_Z   1
loop_
 _symmetry_equiv_pos_site_id
 _symmetry_equiv_pos_as_xyz
  1  'x, y, z'
loop_
 _atom_site_type_symbol
 _atom_site_label
 _atom_site_symmetry_multiplicity
 _atom_site_fract_x
 _atom_site_fract_y
 _atom_site_fract_z
 _atom_site_occupancy
  In  In0  1  0.42279285  0.88380849  0.10264124  1
  Ga  Ga1  1  0.92309225  0.38424897  0.10173203  1
  Ag  Ag2  1  0.17337298  0.13315952  0.60155785  1
  Ag  Ag3  1  0.67244095  0.63282615  0.60223413  1
  Te  Te4  1  0.28666526  0.74647760  0.34898132  1
  Te  Te5  1  0.80561340  0.26780972  0.34855464  1
  Te  Te6  1  0.55855012  0.49758396  0.85496068  1
  Te  Te7  1  0.03816326  0.02071115  0.85469317  1
