# generated using pymatgen
data_InP
_symmetry_space_group_name_H-M   'P 1'
_cell_length_a   4.21524334
_cell_length_b   4.20125294
_cell_length_c   6.00063944
_cell_angle_alpha   89.94776154
_cell_angle_beta   89.89889526
_cell_angle_gamma   90.05256653
_symmetry_Int_Tables_number   1
_chemical_formula_structural   InP
_chemical_formula_sum   'In2 P2'
_cell_volume   106.26689028
_cell_formula_units_Z   2
loop_
 _symmetry_equiv_pos_site_id
 _symmetry_equiv_pos_as_xyz
  1  'x, y, z'
loop_
 _atom_site_type_symbol
 _atom_site_label
 _atom_site_symmetry_multiplicity
 _atom_site_fract_x
 _atom_site_fract_y
 _atom_site_fract_z
 _atom_site_occupancy
  In  In0  1  0.00047198  0.45565259  0.26664728  1
  In  In1  1  0.50044066  0.95577407  0.76688105  1
  P  P2  1  0.00028844  0.95627159  0.51835752  1
  P  P3  1  0.50098306  0.45649976  0.01946983  1
