# generated using pymatgen
data_IrO3
_symmetry_space_group_name_H-M   'P 1'
_cell_length_a   3.23535728
_cell_length_b   5.80603504
_cell_length_c   6.29222822
_cell_angle_alpha   105.56667328
_cell_angle_beta   89.52378845
_cell_angle_gamma   105.70120239
_symmetry_Int_Tables_number   1
_chemical_formula_structural   IrO3
_chemical_formula_sum   'Ir2 O6'
_cell_volume   109.34886081
_cell_formula_units_Z   2
loop_
 _symmetry_equiv_pos_site_id
 _symmetry_equiv_pos_as_xyz
  1  'x, y, z'
loop_
 _atom_site_type_symbol
 _atom_site_label
 _atom_site_symmetry_multiplicity
 _atom_site_fract_x
 _atom_site_fract_y
 _atom_site_fract_z
 _atom_site_occupancy
  Ir  Ir0  1  0.40667874  0.60440969  0.24756064  1
  Ir  Ir1  1  0.73783398  0.26237184  0.87369633  1
  O  O2  1  0.90878826  0.61288404  0.03709357  1
  O  O3  1  0.57527173  0.94561428  0.33454034  1
  O  O4  1  0.57045209  0.92203224  0.78163195  1
  O  O5  1  0.23403312  0.25958002  0.08387130  1
  O  O6  1  0.89226174  0.57170540  0.42111623  1
  O  O7  1  0.25354016  0.30901623  0.70051068  1
