# generated using pymatgen
data_K(CoSe)2
_symmetry_space_group_name_H-M   'P 1'
_cell_length_a   3.84323359
_cell_length_b   3.83507037
_cell_length_c   7.25088120
_cell_angle_alpha   105.40103149
_cell_angle_beta   105.12204742
_cell_angle_gamma   90.27814484
_symmetry_Int_Tables_number   1
_chemical_formula_structural   K(CoSe)2
_chemical_formula_sum   'K1 Co2 Se2'
_cell_volume   99.14970001
_cell_formula_units_Z   1
loop_
 _symmetry_equiv_pos_site_id
 _symmetry_equiv_pos_as_xyz
  1  'x, y, z'
loop_
 _atom_site_type_symbol
 _atom_site_label
 _atom_site_symmetry_multiplicity
 _atom_site_fract_x
 _atom_site_fract_y
 _atom_site_fract_z
 _atom_site_occupancy
  K  K0  1  0.87968403  0.03866918  0.81887579  1
  Co  Co1  1  0.12976968  0.78820813  0.31874630  1
  Co  Co2  1  0.62989634  0.28799763  0.31845781  1
  Se  Se3  1  0.22853911  0.38844663  0.51803136  1
  Se  Se4  1  0.53235328  0.69241792  0.12194152  1
