# generated using pymatgen
data_K(SiPt)4
_symmetry_space_group_name_H-M   'P 1'
_cell_length_a   3.83878469
_cell_length_b   6.90120840
_cell_length_c   7.30068779
_cell_angle_alpha   118.10326385
_cell_angle_beta   90.04878235
_cell_angle_gamma   89.90881348
_symmetry_Int_Tables_number   1
_chemical_formula_structural   K(SiPt)4
_chemical_formula_sum   'K1 Si4 Pt4'
_cell_volume   170.60822279
_cell_formula_units_Z   1
loop_
 _symmetry_equiv_pos_site_id
 _symmetry_equiv_pos_as_xyz
  1  'x, y, z'
loop_
 _atom_site_type_symbol
 _atom_site_label
 _atom_site_symmetry_multiplicity
 _atom_site_fract_x
 _atom_site_fract_y
 _atom_site_fract_z
 _atom_site_occupancy
  K  K0  1  0.72645241  0.36987537  0.75220400  1
  Si  Si1  1  0.22704782  0.80250722  0.00387001  1
  Si  Si2  1  0.72656286  0.89148962  0.27644351  1
  Si  Si3  1  0.72665060  0.39512023  0.27555078  1
  Si  Si4  1  0.22611044  0.93751997  0.72836018  1
  Pt  Pt5  1  0.22604339  0.17207640  0.31700763  1
  Pt  Pt6  1  0.72627574  0.01245445  0.98012704  1
  Pt  Pt7  1  0.72623044  0.76623172  0.53594548  1
  Pt  Pt8  1  0.22665124  0.59659725  0.19985659  1
