# generated using pymatgen
data_K(SiPd)4
_symmetry_space_group_name_H-M   'P 1'
_cell_length_a   3.76003122
_cell_length_b   6.57150459
_cell_length_c   7.12317562
_cell_angle_alpha   113.64174652
_cell_angle_beta   89.85158539
_cell_angle_gamma   89.54736328
_symmetry_Int_Tables_number   1
_chemical_formula_structural   K(SiPd)4
_chemical_formula_sum   'K1 Si4 Pd4'
_cell_volume   161.22664608
_cell_formula_units_Z   1
loop_
 _symmetry_equiv_pos_site_id
 _symmetry_equiv_pos_as_xyz
  1  'x, y, z'
loop_
 _atom_site_type_symbol
 _atom_site_label
 _atom_site_symmetry_multiplicity
 _atom_site_fract_x
 _atom_site_fract_y
 _atom_site_fract_z
 _atom_site_occupancy
  K  K0  1  0.01617323  0.55432272  0.09278800  1
  Si  Si1  1  0.01612281  0.50199473  0.61713517  1
  Si  Si2  1  0.51319462  0.05524776  0.09447749  1
  Si  Si3  1  0.51622820  0.85111481  0.48042387  1
  Si  Si4  1  0.51582396  0.26131490  0.67577153  1
  Pd  Pd5  1  0.01619733  0.02918466  0.74927652  1
  Pd  Pd6  1  0.51605088  0.39742741  0.39187813  1
  Pd  Pd7  1  0.51567334  0.73162299  0.78551936  1
  Pd  Pd8  1  0.01560672  0.08599100  0.39203906  1
