# generated using pymatgen
data_K2AgMoBr6
_symmetry_space_group_name_H-M   'P 1'
_cell_length_a   7.73130274
_cell_length_b   7.73625374
_cell_length_c   7.72102928
_cell_angle_alpha   59.95631409
_cell_angle_beta   59.85773468
_cell_angle_gamma   59.90523148
_symmetry_Int_Tables_number   1
_chemical_formula_structural   K2AgMoBr6
_chemical_formula_sum   'K2 Ag1 Mo1 Br6'
_cell_volume   325.85174269
_cell_formula_units_Z   1
loop_
 _symmetry_equiv_pos_site_id
 _symmetry_equiv_pos_as_xyz
  1  'x, y, z'
loop_
 _atom_site_type_symbol
 _atom_site_label
 _atom_site_symmetry_multiplicity
 _atom_site_fract_x
 _atom_site_fract_y
 _atom_site_fract_z
 _atom_site_occupancy
  K  K0  1  0.26030308  0.46114895  0.82094812  1
  K  K1  1  0.76023281  0.95978898  0.32086870  1
  Ag  Ag2  1  0.01096100  0.21194762  0.57081389  1
  Mo  Mo3  1  0.51055205  0.71143073  0.07078011  1
  Br  Br4  1  0.75096858  0.95105773  0.83051860  1
  Br  Br5  1  0.75102705  0.47116801  0.82969600  1
  Br  Br6  1  0.27120802  0.47190103  0.31044823  1
  Br  Br7  1  0.27109215  0.95232743  0.83075315  1
  Br  Br8  1  0.75102490  0.47141156  0.31003445  1
  Br  Br9  1  0.27101579  0.95261478  0.31024536  1
