# generated using pymatgen
data_K2CaPrO4
_symmetry_space_group_name_H-M   'P 1'
_cell_length_a   3.69275045
_cell_length_b   3.68419051
_cell_length_c   10.12977982
_cell_angle_alpha   89.90037537
_cell_angle_beta   89.96491241
_cell_angle_gamma   89.79216766
_symmetry_Int_Tables_number   1
_chemical_formula_structural   K2CaPrO4
_chemical_formula_sum   'K2 Ca1 Pr1 O4'
_cell_volume   137.81244949
_cell_formula_units_Z   1
loop_
 _symmetry_equiv_pos_site_id
 _symmetry_equiv_pos_as_xyz
  1  'x, y, z'
loop_
 _atom_site_type_symbol
 _atom_site_label
 _atom_site_symmetry_multiplicity
 _atom_site_fract_x
 _atom_site_fract_y
 _atom_site_fract_z
 _atom_site_occupancy
  K  K0  1  0.09096207  0.44141310  0.12216089  1
  K  K1  1  0.09109638  0.44114047  0.62506735  1
  Ca  Ca2  1  0.59133863  0.94098592  0.87574291  1
  Pr  Pr3  1  0.59093285  0.94055879  0.37568927  1
  O  O4  1  0.59096330  0.94104111  0.62349904  1
  O  O5  1  0.59089434  0.94082314  0.12530389  1
  O  O6  1  0.09087905  0.44111043  0.87456453  1
  O  O7  1  0.09146090  0.44092613  0.37475166  1
