# generated using pymatgen
data_K2HBrO
_symmetry_space_group_name_H-M   'P 1'
_cell_length_a   4.26521063
_cell_length_b   5.29440498
_cell_length_c   12.07410049
_cell_angle_alpha   89.94173431
_cell_angle_beta   90.12728119
_cell_angle_gamma   90.26390839
_symmetry_Int_Tables_number   1
_chemical_formula_structural   K2HBrO
_chemical_formula_sum   'K4 H2 Br2 O2'
_cell_volume   272.65064469
_cell_formula_units_Z   2
loop_
 _symmetry_equiv_pos_site_id
 _symmetry_equiv_pos_as_xyz
  1  'x, y, z'
loop_
 _atom_site_type_symbol
 _atom_site_label
 _atom_site_symmetry_multiplicity
 _atom_site_fract_x
 _atom_site_fract_y
 _atom_site_fract_z
 _atom_site_occupancy
  K  K0  1  0.63823432  0.87926012  0.78787285  1
  K  K1  1  0.13221140  0.37829638  0.42271665  1
  K  K2  1  0.13245030  0.37896088  0.11553711  1
  K  K3  1  0.63318276  0.87833589  0.28977776  1
  H  H4  1  0.13196357  0.87885714  0.53455704  1
  H  H5  1  0.63205379  0.37762356  0.93449688  1
  Br  Br6  1  0.63259965  0.37882590  0.61731315  1
  Br  Br7  1  0.13335508  0.87864906  0.95975155  1
  O  O8  1  0.13223912  0.87818503  0.42225206  1
  O  O9  1  0.63229966  0.37862578  0.25414380  1
