# generated using pymatgen
data_K2Hg3(GeS4)2
_symmetry_space_group_name_H-M   'P 1'
_cell_length_a   6.60021496
_cell_length_b   6.67736864
_cell_length_c   9.58971882
_cell_angle_alpha   83.57571411
_cell_angle_beta   82.43608093
_cell_angle_gamma   77.76796722
_symmetry_Int_Tables_number   1
_chemical_formula_structural   K2Hg3(GeS4)2
_chemical_formula_sum   'K2 Hg3 Ge2 S8'
_cell_volume   407.90773776
_cell_formula_units_Z   1
loop_
 _symmetry_equiv_pos_site_id
 _symmetry_equiv_pos_as_xyz
  1  'x, y, z'
loop_
 _atom_site_type_symbol
 _atom_site_label
 _atom_site_symmetry_multiplicity
 _atom_site_fract_x
 _atom_site_fract_y
 _atom_site_fract_z
 _atom_site_occupancy
  K  K0  1  0.33869299  0.72116941  0.96596980  1
  K  K1  1  0.41173315  0.69622403  0.43583074  1
  Hg  Hg2  1  0.90476096  0.66040045  0.75358796  1
  Hg  Hg3  1  0.91216552  0.16514254  0.43720341  1
  Hg  Hg4  1  0.46140864  0.22394156  0.75438327  1
  Ge  Ge5  1  0.38318422  0.23597331  0.25354144  1
  Ge  Ge6  1  0.87169564  0.19725367  0.06057448  1
  S  S7  1  0.14128475  0.01318412  0.20265798  1
  S  S8  1  0.64401275  0.49719051  0.70015442  1
  S  S9  1  0.59206361  0.06972976  0.43883228  1
  S  S10  1  0.67813432  0.00370133  0.00340226  1
  S  S11  1  0.63893986  0.43730038  0.16699865  1
  S  S12  1  0.11418031  0.92495358  0.68585634  1
  S  S13  1  0.09444074  0.36074626  0.90073365  1
  S  S14  1  0.11832585  0.44076300  0.36715475  1
