# generated using pymatgen
data_K2HgPdF6
_symmetry_space_group_name_H-M   'P 1'
_cell_length_a   6.24611044
_cell_length_b   6.25538492
_cell_length_c   6.25223064
_cell_angle_alpha   59.89544296
_cell_angle_beta   59.92034912
_cell_angle_gamma   59.85883713
_symmetry_Int_Tables_number   1
_chemical_formula_structural   K2HgPdF6
_chemical_formula_sum   'K2 Hg1 Pd1 F6'
_cell_volume   172.31118438
_cell_formula_units_Z   1
loop_
 _symmetry_equiv_pos_site_id
 _symmetry_equiv_pos_as_xyz
  1  'x, y, z'
loop_
 _atom_site_type_symbol
 _atom_site_label
 _atom_site_symmetry_multiplicity
 _atom_site_fract_x
 _atom_site_fract_y
 _atom_site_fract_z
 _atom_site_occupancy
  K  K0  1  0.58185780  0.57755959  0.57452649  1
  K  K1  1  0.08183399  0.07792958  0.07409908  1
  Hg  Hg2  1  0.83191407  0.82841486  0.82498157  1
  Pd  Pd3  1  0.33144647  0.32793856  0.32479259  1
  F  F4  1  0.08791721  0.57143700  0.56859177  1
  F  F5  1  0.08784424  0.57230121  0.08142944  1
  F  F6  1  0.57632548  0.08367345  0.08070738  1
  F  F7  1  0.57634068  0.57125545  0.08022028  1
  F  F8  1  0.08750650  0.08511468  0.56908697  1
  F  F9  1  0.57584548  0.08445431  0.56841642  1
