# generated using pymatgen
data_K2LiInF6
_symmetry_space_group_name_H-M   'P 1'
_cell_length_a   5.98912001
_cell_length_b   5.99506807
_cell_length_c   5.98481560
_cell_angle_alpha   59.77031326
_cell_angle_beta   59.88908386
_cell_angle_gamma   59.85466003
_symmetry_Int_Tables_number   1
_chemical_formula_structural   K2LiInF6
_chemical_formula_sum   'K2 Li1 In1 F6'
_cell_volume   151.38833265
_cell_formula_units_Z   1
loop_
 _symmetry_equiv_pos_site_id
 _symmetry_equiv_pos_as_xyz
  1  'x, y, z'
loop_
 _atom_site_type_symbol
 _atom_site_label
 _atom_site_symmetry_multiplicity
 _atom_site_fract_x
 _atom_site_fract_y
 _atom_site_fract_z
 _atom_site_occupancy
  K  K0  1  0.04827263  0.21284977  0.61244130  1
  K  K1  1  0.54829341  0.71257782  0.11259489  1
  Li  Li2  1  0.29799786  0.46241114  0.86344367  1
  In  In3  1  0.79782087  0.96267176  0.36336762  1
  F  F4  1  0.04699127  0.71414715  0.11333657  1
  F  F5  1  0.04702196  0.71478134  0.61168832  1
  F  F6  1  0.54858273  0.21220964  0.11310904  1
  F  F7  1  0.04723434  0.21137683  0.11332155  1
  F  F8  1  0.54876292  0.21198690  0.61109507  1
  F  F9  1  0.54881799  0.71470892  0.61091322  1
