# generated using pymatgen
data_K2LiPdF6
_symmetry_space_group_name_H-M   'P 1'
_cell_length_a   5.86041927
_cell_length_b   5.87737417
_cell_length_c   5.87025499
_cell_angle_alpha   60.17150497
_cell_angle_beta   60.05046463
_cell_angle_gamma   59.82962036
_symmetry_Int_Tables_number   1
_chemical_formula_structural   K2LiPdF6
_chemical_formula_sum   'K2 Li1 Pd1 F6'
_cell_volume   143.02611220
_cell_formula_units_Z   1
loop_
 _symmetry_equiv_pos_site_id
 _symmetry_equiv_pos_as_xyz
  1  'x, y, z'
loop_
 _atom_site_type_symbol
 _atom_site_label
 _atom_site_symmetry_multiplicity
 _atom_site_fract_x
 _atom_site_fract_y
 _atom_site_fract_z
 _atom_site_occupancy
  K  K0  1  0.66384155  0.25769797  0.72598219  1
  K  K1  1  0.16400336  0.75787783  0.22623330  1
  Li  Li2  1  0.41322908  0.00746819  0.47672802  1
  Pd  Pd3  1  0.91353095  0.50768632  0.97696239  1
  F  F4  1  0.66240042  0.75917017  0.72517514  1
  F  F5  1  0.16398849  0.25703856  0.22723682  1
  F  F6  1  0.16402772  0.25722080  0.72486794  1
  F  F7  1  0.16402309  0.75894493  0.72505641  1
  F  F8  1  0.66204035  0.25639933  0.22716387  1
  F  F9  1  0.66181761  0.75896132  0.22739677  1
