# generated using pymatgen
data_K2NaAs
_symmetry_space_group_name_H-M   'P 1'
_cell_length_a   5.77718878
_cell_length_b   5.76069450
_cell_length_c   9.82610989
_cell_angle_alpha   72.98775482
_cell_angle_beta   72.97370911
_cell_angle_gamma   60.11040497
_symmetry_Int_Tables_number   1
_chemical_formula_structural   K2NaAs
_chemical_formula_sum   'K4 Na2 As2'
_cell_volume   266.81855399
_cell_formula_units_Z   2
loop_
 _symmetry_equiv_pos_site_id
 _symmetry_equiv_pos_as_xyz
  1  'x, y, z'
loop_
 _atom_site_type_symbol
 _atom_site_label
 _atom_site_symmetry_multiplicity
 _atom_site_fract_x
 _atom_site_fract_y
 _atom_site_fract_z
 _atom_site_occupancy
  K  K0  1  0.75018579  0.99923563  0.95584410  1
  K  K1  1  0.16019870  0.41213286  0.73428875  1
  K  K2  1  0.59427863  0.84504509  0.42141801  1
  K  K3  1  0.00225055  0.25191861  0.21226104  1
  Na  Na4  1  0.37608773  0.62944657  0.07807289  1
  Na  Na5  1  0.87588978  0.12629004  0.57900119  1
  As  As6  1  0.27595103  0.52824885  0.38670668  1
  As  As7  1  0.47482023  0.73248225  0.77424109  1
