# generated using pymatgen
data_K2RbScCl6
_symmetry_space_group_name_H-M   'P 1'
_cell_length_a   7.74332142
_cell_length_b   7.74866724
_cell_length_c   7.73830271
_cell_angle_alpha   59.93437195
_cell_angle_beta   59.91339874
_cell_angle_gamma   59.89390564
_symmetry_Int_Tables_number   1
_chemical_formula_structural   K2RbScCl6
_chemical_formula_sum   'K2 Rb1 Sc1 Cl6'
_cell_volume   327.66929976
_cell_formula_units_Z   1
loop_
 _symmetry_equiv_pos_site_id
 _symmetry_equiv_pos_as_xyz
  1  'x, y, z'
loop_
 _atom_site_type_symbol
 _atom_site_label
 _atom_site_symmetry_multiplicity
 _atom_site_fract_x
 _atom_site_fract_y
 _atom_site_fract_z
 _atom_site_occupancy
  K  K0  1  0.53601253  0.02873821  0.59480608  1
  K  K1  1  0.28503373  0.77847689  0.34529129  1
  Rb  Rb2  1  0.78516132  0.27674255  0.84554213  1
  Sc  Sc3  1  0.03579612  0.52807814  0.09506496  1
  Cl  Cl4  1  0.80701798  0.30069306  0.32224479  1
  Cl  Cl5  1  0.26379845  0.30033419  0.32305208  1
  Cl  Cl6  1  0.80672944  0.75676262  0.86585832  1
  Cl  Cl7  1  0.26339379  0.30036521  0.86609757  1
  Cl  Cl8  1  0.26324609  0.75631040  0.86606640  1
  Cl  Cl9  1  0.80674005  0.75705761  0.32278290  1
