# generated using pymatgen
data_K2RbTiF6
_symmetry_space_group_name_H-M   'P 1'
_cell_length_a   6.42019081
_cell_length_b   6.43641138
_cell_length_c   6.41605854
_cell_angle_alpha   59.67022705
_cell_angle_beta   59.65301895
_cell_angle_gamma   59.82947922
_symmetry_Int_Tables_number   1
_chemical_formula_structural   K2RbTiF6
_chemical_formula_sum   'K2 Rb1 Ti1 F6'
_cell_volume   186.27206989
_cell_formula_units_Z   1
loop_
 _symmetry_equiv_pos_site_id
 _symmetry_equiv_pos_as_xyz
  1  'x, y, z'
loop_
 _atom_site_type_symbol
 _atom_site_label
 _atom_site_symmetry_multiplicity
 _atom_site_fract_x
 _atom_site_fract_y
 _atom_site_fract_z
 _atom_site_occupancy
  K  K0  1  0.37023133  0.51533312  0.65640497  1
  K  K1  1  0.11998191  0.26375380  0.40621397  1
  Rb  Rb2  1  0.61939889  0.76352322  0.90677422  1
  Ti  Ti3  1  0.87004703  0.01394460  0.15590391  1
  F  F4  1  0.09083666  0.23474760  0.93695676  1
  F  F5  1  0.08998099  0.79470646  0.37609005  1
  F  F6  1  0.65041059  0.23478289  0.37602529  1
  F  F7  1  0.64982897  0.79540789  0.37622941  1
  F  F8  1  0.09027906  0.79433244  0.93707120  1
  F  F9  1  0.65043098  0.23446277  0.93725890  1
