# generated using pymatgen
data_K2TlHgBr6
_symmetry_space_group_name_H-M   'P 1'
_cell_length_a   8.12368584
_cell_length_b   8.13599205
_cell_length_c   8.11466885
_cell_angle_alpha   59.77310562
_cell_angle_beta   59.70104218
_cell_angle_gamma   59.74827957
_symmetry_Int_Tables_number   1
_chemical_formula_structural   K2TlHgBr6
_chemical_formula_sum   'K2 Tl1 Hg1 Br6'
_cell_volume   377.01208041
_cell_formula_units_Z   1
loop_
 _symmetry_equiv_pos_site_id
 _symmetry_equiv_pos_as_xyz
  1  'x, y, z'
loop_
 _atom_site_type_symbol
 _atom_site_label
 _atom_site_symmetry_multiplicity
 _atom_site_fract_x
 _atom_site_fract_y
 _atom_site_fract_z
 _atom_site_occupancy
  K  K0  1  0.64501071  0.18771528  0.49771082  1
  K  K1  1  0.14502884  0.68777055  0.99716377  1
  Tl  Tl2  1  0.39520365  0.93794250  0.24607901  1
  Hg  Hg3  1  0.89523441  0.43814197  0.74742031  1
  Br  Br4  1  0.64923060  0.68501347  0.50027448  1
  Br  Br5  1  0.14202960  0.19159926  0.99122328  1
  Br  Br6  1  0.64883214  0.19155073  0.99097824  1
  Br  Br7  1  0.64989907  0.68461800  0.99128038  1
  Br  Br8  1  0.14201120  0.19118641  0.50036246  1
  Br  Br9  1  0.14111987  0.68447185  0.49947172  1
