# generated using pymatgen
data_K2TlAgBr6
_symmetry_space_group_name_H-M   'P 1'
_cell_length_a   7.94961357
_cell_length_b   7.96720982
_cell_length_c   7.95690298
_cell_angle_alpha   59.93572617
_cell_angle_beta   59.81458664
_cell_angle_gamma   59.90320587
_symmetry_Int_Tables_number   1
_chemical_formula_structural   K2TlAgBr6
_chemical_formula_sum   'K2 Tl1 Ag1 Br6'
_cell_volume   355.41910003
_cell_formula_units_Z   1
loop_
 _symmetry_equiv_pos_site_id
 _symmetry_equiv_pos_as_xyz
  1  'x, y, z'
loop_
 _atom_site_type_symbol
 _atom_site_label
 _atom_site_symmetry_multiplicity
 _atom_site_fract_x
 _atom_site_fract_y
 _atom_site_fract_z
 _atom_site_occupancy
  K  K0  1  0.49666768  0.74799371  0.20899636  1
  K  K1  1  0.99671197  0.24838491  0.70953727  1
  Tl  Tl2  1  0.24651404  0.49762249  0.95952809  1
  Ag  Ag3  1  0.74672079  0.99810112  0.45973068  1
  Br  Br4  1  0.99619013  0.24856009  0.20974624  1
  Br  Br5  1  0.49729732  0.24823345  0.70856529  1
  Br  Br6  1  0.99663758  0.74910319  0.20986661  1
  Br  Br7  1  0.99570638  0.74873835  0.70864391  1
  Br  Br8  1  0.49698341  0.74866301  0.70859313  1
  Br  Br9  1  0.49710163  0.24828798  0.20965771  1
