# generated using pymatgen
data_K2Zr(PO4)2
_symmetry_space_group_name_H-M   'P 1'
_cell_length_a   5.23006678
_cell_length_b   5.25424576
_cell_length_c   8.27649784
_cell_angle_alpha   76.44161224
_cell_angle_beta   76.47692108
_cell_angle_gamma   62.57041931
_symmetry_Int_Tables_number   1
_chemical_formula_structural   K2Zr(PO4)2
_chemical_formula_sum   'K2 Zr1 P2 O8'
_cell_volume   194.14527773
_cell_formula_units_Z   1
loop_
 _symmetry_equiv_pos_site_id
 _symmetry_equiv_pos_as_xyz
  1  'x, y, z'
loop_
 _atom_site_type_symbol
 _atom_site_label
 _atom_site_symmetry_multiplicity
 _atom_site_fract_x
 _atom_site_fract_y
 _atom_site_fract_z
 _atom_site_occupancy
  K  K0  1  0.39902943  0.75730217  0.47204801  1
  K  K1  1  0.98278081  0.33666429  0.75925392  1
  Zr  Zr2  1  0.18875802  0.54902899  0.11676335  1
  P  P3  1  0.80467618  0.16772255  0.31108946  1
  P  P4  1  0.57699150  0.93548059  0.91915262  1
  O  O5  1  0.43814471  0.26383075  0.93400925  1
  O  O6  1  0.87727016  0.23230946  0.46942741  1
  O  O7  1  0.94417286  0.84329343  0.29801276  1
  O  O8  1  0.47338572  0.30520189  0.29794884  1
  O  O9  1  0.43537286  0.79441565  0.07053408  1
  O  O10  1  0.50059825  0.86473912  0.76184487  1
  O  O11  1  0.90560538  0.80306131  0.93274134  1
  O  O12  1  0.94732392  0.30629686  0.16118436  1
