# generated using pymatgen
data_K3Cd
_symmetry_space_group_name_H-M   'P 1'
_cell_length_a   5.88321495
_cell_length_b   5.85104465
_cell_length_c   5.88350248
_cell_angle_alpha   89.85136414
_cell_angle_beta   89.99506378
_cell_angle_gamma   89.94264221
_symmetry_Int_Tables_number   1
_chemical_formula_structural   K3Cd
_chemical_formula_sum   'K3 Cd1'
_cell_volume   202.52674808
_cell_formula_units_Z   1
loop_
 _symmetry_equiv_pos_site_id
 _symmetry_equiv_pos_as_xyz
  1  'x, y, z'
loop_
 _atom_site_type_symbol
 _atom_site_label
 _atom_site_symmetry_multiplicity
 _atom_site_fract_x
 _atom_site_fract_y
 _atom_site_fract_z
 _atom_site_occupancy
  K  K0  1  0.03128364  0.96427208  0.30208582  1
  K  K1  1  0.03135749  0.46399570  0.80202150  1
  K  K2  1  0.53096867  0.46415663  0.30295354  1
  Cd  Cd3  1  0.53146303  0.96360427  0.80277735  1
