# generated using pymatgen
data_K3GdF6
_symmetry_space_group_name_H-M   'P 1'
_cell_length_a   6.84944630
_cell_length_b   7.45315886
_cell_length_c   7.52747965
_cell_angle_alpha   99.71762848
_cell_angle_beta   90.93330383
_cell_angle_gamma   90.64709473
_symmetry_Int_Tables_number   1
_chemical_formula_structural   K3GdF6
_chemical_formula_sum   'K6 Gd2 F12'
_cell_volume   378.67544194
_cell_formula_units_Z   2
loop_
 _symmetry_equiv_pos_site_id
 _symmetry_equiv_pos_as_xyz
  1  'x, y, z'
loop_
 _atom_site_type_symbol
 _atom_site_label
 _atom_site_symmetry_multiplicity
 _atom_site_fract_x
 _atom_site_fract_y
 _atom_site_fract_z
 _atom_site_occupancy
  K  K0  1  0.61686838  0.99251366  0.90980887  1
  K  K1  1  0.10944203  0.72251087  0.08783410  1
  K  K2  1  0.08101292  0.21769744  0.03073102  1
  K  K3  1  0.05649255  0.17277749  0.51206905  1
  K  K4  1  0.55707407  0.86864233  0.40948334  1
  K  K5  1  0.55609328  0.48646310  0.80314445  1
  Gd  Gd6  1  0.10759899  0.65422612  0.60478795  1
  Gd  Gd7  1  0.62119013  0.35772967  0.31195766  1
  F  F8  1  0.16079040  0.82330132  0.41447678  1
  F  F9  1  0.13384457  0.46076113  0.79590458  1
  F  F10  1  0.96213436  0.43975261  0.33147585  1
  F  F11  1  0.77641827  0.60600686  0.54337037  1
  F  F12  1  0.98971963  0.89015585  0.80298185  1
  F  F13  1  0.39589915  0.12663506  0.20935404  1
  F  F14  1  0.66071093  0.20605409  0.56817710  1
  F  F15  1  0.71840847  0.31512177  0.02495647  1
  F  F16  1  0.49044564  0.58028638  0.17790717  1
  F  F17  1  0.34847263  0.44122189  0.47985879  1
  F  F18  1  0.81790054  0.03406004  0.23162164  1
  F  F19  1  0.38355067  0.78392988  0.74746907  1
