# generated using pymatgen
data_K3H5Pd
_symmetry_space_group_name_H-M   'P 1'
_cell_length_a   6.11318779
_cell_length_b   6.11078548
_cell_length_c   8.80214310
_cell_angle_alpha   89.87019348
_cell_angle_beta   89.84728241
_cell_angle_gamma   90.04485321
_symmetry_Int_Tables_number   1
_chemical_formula_structural   K3H5Pd
_chemical_formula_sum   'K6 H10 Pd2'
_cell_volume   328.81408118
_cell_formula_units_Z   2
loop_
 _symmetry_equiv_pos_site_id
 _symmetry_equiv_pos_as_xyz
  1  'x, y, z'
loop_
 _atom_site_type_symbol
 _atom_site_label
 _atom_site_symmetry_multiplicity
 _atom_site_fract_x
 _atom_site_fract_y
 _atom_site_fract_z
 _atom_site_occupancy
  K  K0  1  0.96594161  0.93888503  0.10085183  1
  K  K1  1  0.46524677  0.43867055  0.60599315  1
  K  K2  1  0.96564692  0.93928677  0.60358846  1
  K  K3  1  0.46586621  0.93945396  0.85276175  1
  K  K4  1  0.46527570  0.43988702  0.09362547  1
  K  K5  1  0.96618003  0.43908188  0.35265106  1
  H  H6  1  0.96534061  0.43887299  0.04859239  1
  H  H7  1  0.46526161  0.93820995  0.16814086  1
  H  H8  1  0.27215362  0.12770566  0.39770138  1
  H  H9  1  0.15783717  0.62802523  0.82718807  1
  H  H10  1  0.65753055  0.74278021  0.39779764  1
  H  H11  1  0.77205366  0.24269357  0.82708436  1
  H  H12  1  0.65782815  0.12894227  0.39774913  1
  H  H13  1  0.77148408  0.62799323  0.82677984  1
  H  H14  1  0.15780218  0.24251445  0.82703489  1
  H  H15  1  0.27145088  0.74198717  0.39772549  1
  Pd  Pd16  1  0.46556282  0.93799758  0.35383147  1
  Pd  Pd17  1  0.96598619  0.43847486  0.85488904  1
