# generated using pymatgen
data_K3VSO3
_symmetry_space_group_name_H-M   'P 1'
_cell_length_a   6.75560379
_cell_length_b   6.74938631
_cell_length_c   8.14442444
_cell_angle_alpha   84.85172272
_cell_angle_beta   84.31237030
_cell_angle_gamma   78.18217468
_symmetry_Int_Tables_number   1
_chemical_formula_structural   K3VSO3
_chemical_formula_sum   'K6 V2 S2 O6'
_cell_volume   360.77355244
_cell_formula_units_Z   2
loop_
 _symmetry_equiv_pos_site_id
 _symmetry_equiv_pos_as_xyz
  1  'x, y, z'
loop_
 _atom_site_type_symbol
 _atom_site_label
 _atom_site_symmetry_multiplicity
 _atom_site_fract_x
 _atom_site_fract_y
 _atom_site_fract_z
 _atom_site_occupancy
  K  K0  1  0.05771602  0.95729250  0.64954388  1
  K  K1  1  0.01611777  0.00186394  0.14913654  1
  K  K2  1  0.55638599  0.45774949  0.14996094  1
  K  K3  1  0.51761883  0.50087804  0.64989823  1
  K  K4  1  0.02780466  0.45767370  0.41180047  1
  K  K5  1  0.52588481  0.95644832  0.91164732  1
  V  V6  1  0.07056972  0.50562310  0.96898746  1
  V  V7  1  0.57081604  0.00682616  0.46918926  1
  S  S8  1  0.39068070  0.82517505  0.33234859  1
  S  S9  1  0.89149177  0.32424277  0.83276075  1
  O  O10  1  0.23219389  0.68249387  0.88620317  1
  O  O11  1  0.88410962  0.66242927  0.09173872  1
  O  O12  1  0.21951894  0.31785557  0.09177613  1
  O  O13  1  0.73135990  0.18292545  0.38658273  1
  O  O14  1  0.38541666  0.16074425  0.59126377  1
  O  O15  1  0.72117335  0.81826890  0.59077877  1
