# generated using pymatgen
data_K4ZnAs2
_symmetry_space_group_name_H-M   'P 1'
_cell_length_a   5.95976830
_cell_length_b   6.46123457
_cell_length_c   6.50745630
_cell_angle_alpha   107.18284607
_cell_angle_beta   90.62094116
_cell_angle_gamma   90.11991882
_symmetry_Int_Tables_number   1
_chemical_formula_structural   K4ZnAs2
_chemical_formula_sum   'K4 Zn1 As2'
_cell_volume   239.38345902
_cell_formula_units_Z   1
loop_
 _symmetry_equiv_pos_site_id
 _symmetry_equiv_pos_as_xyz
  1  'x, y, z'
loop_
 _atom_site_type_symbol
 _atom_site_label
 _atom_site_symmetry_multiplicity
 _atom_site_fract_x
 _atom_site_fract_y
 _atom_site_fract_z
 _atom_site_occupancy
  K  K0  1  0.95698446  0.55806172  0.02144509  1
  K  K1  1  0.45762897  0.20917226  0.98503554  1
  K  K2  1  0.95711571  0.90325665  0.67638850  1
  K  K3  1  0.45825255  0.87167943  0.33412451  1
  Zn  Zn4  1  0.20706356  0.37824976  0.49741125  1
  As  As5  1  0.45656389  0.61707002  0.73019141  1
  As  As6  1  0.95793355  0.13449006  0.25406006  1
