# generated using pymatgen
data_KAl(SO4)2
_symmetry_space_group_name_H-M   'P 1'
_cell_length_a   5.00220203
_cell_length_b   4.99457693
_cell_length_c   7.99718714
_cell_angle_alpha   89.96452332
_cell_angle_beta   89.86853027
_cell_angle_gamma   119.69527435
_symmetry_Int_Tables_number   1
_chemical_formula_structural   KAl(SO4)2
_chemical_formula_sum   'K1 Al1 S2 O8'
_cell_volume   173.56061274
_cell_formula_units_Z   1
loop_
 _symmetry_equiv_pos_site_id
 _symmetry_equiv_pos_as_xyz
  1  'x, y, z'
loop_
 _atom_site_type_symbol
 _atom_site_label
 _atom_site_symmetry_multiplicity
 _atom_site_fract_x
 _atom_site_fract_y
 _atom_site_fract_z
 _atom_site_occupancy
  K  K0  1  0.57679468  0.47708264  0.27876300  1
  Al  Al1  1  0.57671165  0.47719643  0.78088278  1
  S  S2  1  0.90987980  0.14422855  0.57601273  1
  S  S3  1  0.24360816  0.80972564  0.98240972  1
  O  O4  1  0.90983707  0.14376993  0.39750764  1
  O  O5  1  0.75195289  0.82445550  0.64059848  1
  O  O6  1  0.40213755  0.12592328  0.92207086  1
  O  O7  1  0.91692120  0.64769274  0.92130619  1
  O  O8  1  0.24377324  0.81327403  0.16101289  1
  O  O9  1  0.75392127  0.30159020  0.64124793  1
  O  O10  1  0.40199363  0.64866567  0.92163026  1
  O  O11  1  0.23465995  0.30356997  0.64083672  1
