# generated using pymatgen
data_KAuI3
_symmetry_space_group_name_H-M   'P 1'
_cell_length_a   8.08137608
_cell_length_b   8.18332386
_cell_length_c   12.13948345
_cell_angle_alpha   89.88384247
_cell_angle_beta   89.95143890
_cell_angle_gamma   90.04763031
_symmetry_Int_Tables_number   1
_chemical_formula_structural   KAuI3
_chemical_formula_sum   'K4 Au4 I12'
_cell_volume   802.81238710
_cell_formula_units_Z   4
loop_
 _symmetry_equiv_pos_site_id
 _symmetry_equiv_pos_as_xyz
  1  'x, y, z'
loop_
 _atom_site_type_symbol
 _atom_site_label
 _atom_site_symmetry_multiplicity
 _atom_site_fract_x
 _atom_site_fract_y
 _atom_site_fract_z
 _atom_site_occupancy
  K  K0  1  0.16743633  0.56309521  0.13915074  1
  K  K1  1  0.66734338  0.06433927  0.14024538  1
  K  K2  1  0.16703676  0.56466311  0.64003450  1
  K  K3  1  0.66666275  0.06400795  0.63912016  1
  Au  Au4  1  0.16753361  0.06292580  0.39063814  1
  Au  Au5  1  0.16724749  0.06218298  0.88880616  1
  Au  Au6  1  0.66733384  0.56285113  0.89019543  1
  Au  Au7  1  0.66771632  0.56256264  0.38967332  1
  I  I8  1  0.16740219  0.06385775  0.13982978  1
  I  I9  1  0.86317110  0.25390020  0.39059070  1
  I  I10  1  0.36372206  0.36323154  0.39012283  1
  I  I11  1  0.16730082  0.06455880  0.63978565  1
  I  I12  1  0.86365992  0.86653930  0.89039177  1
  I  I13  1  0.36310047  0.75362772  0.88999772  1
  I  I14  1  0.96992838  0.75398397  0.39119303  1
  I  I15  1  0.66692907  0.56540543  0.13962869  1
  I  I16  1  0.66713655  0.56449759  0.63967860  1
  I  I17  1  0.46864912  0.86419219  0.39131728  1
  I  I18  1  0.96578431  0.36492211  0.89058971  1
  I  I19  1  0.46993166  0.25307393  0.89125663  1
