# generated using pymatgen
data_KBi(PSe3)2
_symmetry_space_group_name_H-M   'P 1'
_cell_length_a   7.04521418
_cell_length_b   7.66191912
_cell_length_c   10.61723042
_cell_angle_alpha   88.16468811
_cell_angle_beta   88.44057465
_cell_angle_gamma   89.47509003
_symmetry_Int_Tables_number   1
_chemical_formula_structural   KBi(PSe3)2
_chemical_formula_sum   'K2 Bi2 P4 Se12'
_cell_volume   572.59075997
_cell_formula_units_Z   2
loop_
 _symmetry_equiv_pos_site_id
 _symmetry_equiv_pos_as_xyz
  1  'x, y, z'
loop_
 _atom_site_type_symbol
 _atom_site_label
 _atom_site_symmetry_multiplicity
 _atom_site_fract_x
 _atom_site_fract_y
 _atom_site_fract_z
 _atom_site_occupancy
  K  K0  1  0.29911691  0.70780307  0.45217854  1
  K  K1  1  0.72472507  0.24213888  0.59281832  1
  Bi  Bi2  1  0.22465697  0.29165453  0.10036165  1
  Bi  Bi3  1  0.79732591  0.67678535  0.97976488  1
  P  P4  1  0.74581987  0.26122934  0.22318764  1
  P  P5  1  0.29951972  0.52862024  0.82335091  1
  P  P6  1  0.19258434  0.11874999  0.73348337  1
  P  P7  1  0.79659271  0.91208553  0.29709497  1
  Se  Se8  1  0.97250330  0.95150006  0.80188417  1
  Se  Se9  1  0.06695343  0.94894165  0.20873310  1
  Se  Se10  1  0.24674875  0.13193956  0.53155237  1
  Se  Se11  1  0.08016674  0.45801136  0.70195311  1
  Se  Se12  1  0.20350938  0.63098210  0.00581765  1
  Se  Se13  1  0.79869694  0.28893411  0.01367872  1
  Se  Se14  1  0.48024765  0.33163059  0.29763815  1
  Se  Se15  1  0.80238742  0.79799396  0.48528257  1
  Se  Se16  1  0.55931139  0.63660091  0.76104259  1
  Se  Se17  1  0.40543318  0.13866980  0.86516368  1
  Se  Se18  1  0.57848692  0.82126081  0.17570010  1
  Se  Se19  1  0.97185802  0.42600560  0.30419949  1
