# generated using pymatgen
data_KCd4P3
_symmetry_space_group_name_H-M   'P 1'
_cell_length_a   4.41885519
_cell_length_b   4.41363716
_cell_length_c   12.40766525
_cell_angle_alpha   79.58380127
_cell_angle_beta   79.57071686
_cell_angle_gamma   60.51218033
_symmetry_Int_Tables_number   1
_chemical_formula_structural   KCd4P3
_chemical_formula_sum   'K1 Cd4 P3'
_cell_volume   205.97055634
_cell_formula_units_Z   1
loop_
 _symmetry_equiv_pos_site_id
 _symmetry_equiv_pos_as_xyz
  1  'x, y, z'
loop_
 _atom_site_type_symbol
 _atom_site_label
 _atom_site_symmetry_multiplicity
 _atom_site_fract_x
 _atom_site_fract_y
 _atom_site_fract_z
 _atom_site_occupancy
  K  K0  1  0.06078130  0.68119389  0.35686091  1
  Cd  Cd1  1  0.25901181  0.88284767  0.75300616  1
  Cd  Cd2  1  0.65218484  0.27104694  0.58749139  1
  Cd  Cd3  1  0.86122507  0.48222435  0.95217890  1
  Cd  Cd4  1  0.46863869  0.08881956  0.13341519  1
  P  P5  1  0.16151251  0.78203839  0.06041140  1
  P  P6  1  0.57094866  0.19059102  0.81655377  1
  P  P7  1  0.33932042  0.95723677  0.52711725  1
