# generated using pymatgen
data_KEu(CO3)2
_symmetry_space_group_name_H-M   'P 1'
_cell_length_a   5.31436682
_cell_length_b   6.43060207
_cell_length_c   8.76040363
_cell_angle_alpha   96.32775116
_cell_angle_beta   90.18829346
_cell_angle_gamma   90.25041962
_symmetry_Int_Tables_number   1
_chemical_formula_structural   KEu(CO3)2
_chemical_formula_sum   'K2 Eu2 C4 O12'
_cell_volume   297.55418432
_cell_formula_units_Z   2
loop_
 _symmetry_equiv_pos_site_id
 _symmetry_equiv_pos_as_xyz
  1  'x, y, z'
loop_
 _atom_site_type_symbol
 _atom_site_label
 _atom_site_symmetry_multiplicity
 _atom_site_fract_x
 _atom_site_fract_y
 _atom_site_fract_z
 _atom_site_occupancy
  K  K0  1  0.10128829  0.61656320  0.73777539  1
  K  K1  1  0.60169739  0.09804479  0.30286402  1
  Eu  Eu2  1  0.10090235  0.57801235  0.23947398  1
  Eu  Eu3  1  0.60150999  0.11264143  0.80269498  1
  C  C4  1  0.60058647  0.73276734  0.01048781  1
  C  C5  1  0.09999748  0.22542682  0.99718636  1
  C  C6  1  0.10025197  0.98168880  0.50743818  1
  C  C7  1  0.60042244  0.48061106  0.52125531  1
  O  O8  1  0.81418639  0.49949983  0.44934586  1
  O  O9  1  0.59999007  0.41636270  0.65619928  1
  O  O10  1  0.38934690  0.50226527  0.44814837  1
  O  O11  1  0.31355292  0.28616533  0.05295495  1
  O  O12  1  0.10044423  0.09028028  0.88060582  1
  O  O13  1  0.88863683  0.00373083  0.58169895  1
  O  O14  1  0.80923408  0.72762853  0.08145444  1
  O  O15  1  0.31196773  0.00560604  0.58142865  1
  O  O16  1  0.09795792  0.92650926  0.36841562  1
  O  O17  1  0.39060581  0.73745078  0.08323758  1
  O  O18  1  0.59994954  0.76816195  0.86774558  1
  O  O19  1  0.88441277  0.28250143  0.05272536  1
