# generated using pymatgen
data_KHF2
_symmetry_space_group_name_H-M   'P 1'
_cell_length_a   3.99731231
_cell_length_b   5.50089312
_cell_length_c   6.23800468
_cell_angle_alpha   89.84745026
_cell_angle_beta   89.82557678
_cell_angle_gamma   89.95503235
_symmetry_Int_Tables_number   1
_chemical_formula_structural   KHF2
_chemical_formula_sum   'K2 H2 F4'
_cell_volume   137.16499787
_cell_formula_units_Z   2
loop_
 _symmetry_equiv_pos_site_id
 _symmetry_equiv_pos_as_xyz
  1  'x, y, z'
loop_
 _atom_site_type_symbol
 _atom_site_label
 _atom_site_symmetry_multiplicity
 _atom_site_fract_x
 _atom_site_fract_y
 _atom_site_fract_z
 _atom_site_occupancy
  K  K0  1  0.94006509  0.57900828  0.78779525  1
  K  K1  1  0.43990815  0.07820459  0.28869897  1
  H  H2  1  0.93776166  0.57996202  0.28791544  1
  H  H3  1  0.43885925  0.08096430  0.78743947  1
  F  F4  1  0.93799382  0.77500820  0.18622385  1
  F  F5  1  0.93881732  0.38489112  0.39217794  1
  F  F6  1  0.43900916  0.27499592  0.89100510  1
  F  F7  1  0.43994576  0.88488370  0.68646866  1
