# generated using pymatgen
data_KInBr3
_symmetry_space_group_name_H-M   'P 1'
_cell_length_a   8.20815754
_cell_length_b   8.21276379
_cell_length_c   8.20499992
_cell_angle_alpha   59.87929153
_cell_angle_beta   59.83401871
_cell_angle_gamma   59.88744736
_symmetry_Int_Tables_number   1
_chemical_formula_structural   KInBr3
_chemical_formula_sum   'K2 In2 Br6'
_cell_volume   389.92844336
_cell_formula_units_Z   2
loop_
 _symmetry_equiv_pos_site_id
 _symmetry_equiv_pos_as_xyz
  1  'x, y, z'
loop_
 _atom_site_type_symbol
 _atom_site_label
 _atom_site_symmetry_multiplicity
 _atom_site_fract_x
 _atom_site_fract_y
 _atom_site_fract_z
 _atom_site_occupancy
  K  K0  1  0.69283563  0.17293851  0.87613434  1
  K  K1  1  0.19364633  0.67387593  0.37577462  1
  In  In2  1  0.94280112  0.42416126  0.12532665  1
  In  In3  1  0.44280466  0.92386037  0.62528175  1
  Br  Br4  1  0.67914075  0.68791890  0.38959616  1
  Br  Br5  1  0.67938602  0.68841594  0.86007863  1
  Br  Br6  1  0.20672129  0.15862335  0.38950175  1
  Br  Br7  1  0.67901051  0.15906776  0.38988891  1
  Br  Br8  1  0.20766617  0.15928958  0.86091238  1
  Br  Br9  1  0.20790239  0.68820220  0.86037827  1
