# generated using pymatgen
data_KLa2Ag3Te8
_symmetry_space_group_name_H-M   'P 1'
_cell_length_a   4.41875172
_cell_length_b   4.65184021
_cell_length_c   21.12731361
_cell_angle_alpha   89.88513184
_cell_angle_beta   89.89965057
_cell_angle_gamma   89.99501801
_symmetry_Int_Tables_number   1
_chemical_formula_structural   KLa2Ag3Te8
_chemical_formula_sum   'K1 La2 Ag3 Te8'
_cell_volume   434.27729779
_cell_formula_units_Z   1
loop_
 _symmetry_equiv_pos_site_id
 _symmetry_equiv_pos_as_xyz
  1  'x, y, z'
loop_
 _atom_site_type_symbol
 _atom_site_label
 _atom_site_symmetry_multiplicity
 _atom_site_fract_x
 _atom_site_fract_y
 _atom_site_fract_z
 _atom_site_occupancy
  K  K0  1  0.66726416  0.85065764  0.51547134  1
  La  La1  1  0.16672523  0.35108316  0.18692039  1
  La  La2  1  0.16716117  0.35102284  0.78293598  1
  Ag  Ag3  1  0.66715413  0.35102320  0.35078922  1
  Ag  Ag4  1  0.66719681  0.85026252  0.02271380  1
  Ag  Ag5  1  0.66699624  0.35052580  0.92052388  1
  Te  Te6  1  0.66834325  0.35026547  0.65302700  1
  Te  Te7  1  0.16667338  0.35023823  0.45320311  1
  Te  Te8  1  0.16696759  0.85097885  0.93780947  1
  Te  Te9  1  0.66702366  0.85055715  0.81475449  1
  Te  Te10  1  0.16644238  0.85081697  0.32085294  1
  Te  Te11  1  0.16676326  0.85042435  0.65423405  1
  Te  Te12  1  0.66662353  0.35033491  0.07341758  1
  Te  Te13  1  0.66703075  0.85073119  0.21414027  1
