# generated using pymatgen
data_KLaNb2O6
_symmetry_space_group_name_H-M   'P 1'
_cell_length_a   4.08433151
_cell_length_b   4.10158825
_cell_length_c   8.37734413
_cell_angle_alpha   89.88793182
_cell_angle_beta   89.93029022
_cell_angle_gamma   90.11994934
_symmetry_Int_Tables_number   1
_chemical_formula_structural   KLaNb2O6
_chemical_formula_sum   'K1 La1 Nb2 O6'
_cell_volume   140.33865031
_cell_formula_units_Z   1
loop_
 _symmetry_equiv_pos_site_id
 _symmetry_equiv_pos_as_xyz
  1  'x, y, z'
loop_
 _atom_site_type_symbol
 _atom_site_label
 _atom_site_symmetry_multiplicity
 _atom_site_fract_x
 _atom_site_fract_y
 _atom_site_fract_z
 _atom_site_occupancy
  K  K0  1  0.09188109  0.82021236  0.49336913  1
  La  La1  1  0.09195617  0.82030618  0.99300671  1
  Nb  Nb2  1  0.59246784  0.32024455  0.24712065  1
  Nb  Nb3  1  0.59273052  0.32047012  0.74695861  1
  O  O4  1  0.09235393  0.32012963  0.20928326  1
  O  O5  1  0.59235865  0.32007018  0.49371579  1
  O  O6  1  0.09218820  0.32003543  0.77223021  1
  O  O7  1  0.59247953  0.32013896  0.99253643  1
  O  O8  1  0.59206915  0.81971401  0.77254856  1
  O  O9  1  0.59249079  0.81939471  0.20975602  1
