# generated using pymatgen
data_KNaSe
_symmetry_space_group_name_H-M   'P 1'
_cell_length_a   4.87885332
_cell_length_b   7.87987471
_cell_length_c   9.09392738
_cell_angle_alpha   89.89353180
_cell_angle_beta   90.00292206
_cell_angle_gamma   90.11103058
_symmetry_Int_Tables_number   1
_chemical_formula_structural   KNaSe
_chemical_formula_sum   'K4 Na4 Se4'
_cell_volume   349.61253053
_cell_formula_units_Z   4
loop_
 _symmetry_equiv_pos_site_id
 _symmetry_equiv_pos_as_xyz
  1  'x, y, z'
loop_
 _atom_site_type_symbol
 _atom_site_label
 _atom_site_symmetry_multiplicity
 _atom_site_fract_x
 _atom_site_fract_y
 _atom_site_fract_z
 _atom_site_occupancy
  K  K0  1  0.00230505  0.25675482  0.89237881  1
  K  K1  1  0.50277817  0.29421607  0.53609538  1
  K  K2  1  0.50264424  0.79670262  0.40825659  1
  K  K3  1  0.50325251  0.43422714  0.13250820  1
  Na  Na4  1  0.00308540  0.63159430  0.63797182  1
  Na  Na5  1  0.00264120  0.12747769  0.28770998  1
  Na  Na6  1  0.00323294  0.76621920  0.03628118  1
  Na  Na7  1  0.50326914  0.92717266  0.79456627  1
  Se  Se8  1  0.00265801  0.51339859  0.31869832  1
  Se  Se9  1  0.50253844  0.01905714  0.10624657  1
  Se  Se10  1  0.00257837  0.00751090  0.60625225  1
  Se  Se11  1  0.50192052  0.56092650  0.80672622  1
