# generated using pymatgen
data_KNO3
_symmetry_space_group_name_H-M   'P 1'
_cell_length_a   4.29212761
_cell_length_b   5.14020538
_cell_length_c   7.74343872
_cell_angle_alpha   89.98916626
_cell_angle_beta   89.98670197
_cell_angle_gamma   89.69748688
_symmetry_Int_Tables_number   1
_chemical_formula_structural   KNO3
_chemical_formula_sum   'K2 N2 O6'
_cell_volume   170.83658867
_cell_formula_units_Z   2
loop_
 _symmetry_equiv_pos_site_id
 _symmetry_equiv_pos_as_xyz
  1  'x, y, z'
loop_
 _atom_site_type_symbol
 _atom_site_label
 _atom_site_symmetry_multiplicity
 _atom_site_fract_x
 _atom_site_fract_y
 _atom_site_fract_z
 _atom_site_occupancy
  K  K0  1  0.55337572  0.39791277  0.92807555  1
  K  K1  1  0.05476332  0.89881170  0.42759159  1
  N  N2  1  0.04681352  0.90025049  0.99042398  1
  N  N3  1  0.54646093  0.39969876  0.49081248  1
  O  O4  1  0.04795757  0.69352555  0.07454820  1
  O  O5  1  0.54839969  0.19326948  0.57409191  1
  O  O6  1  0.54785299  0.61619818  0.57386440  1
  O  O7  1  0.04837193  0.89963293  0.82992494  1
  O  O8  1  0.54867065  0.39876649  0.33061546  1
  O  O9  1  0.04734227  0.11726506  0.07440071  1
