# generated using pymatgen
data_KRb2ScCl6
_symmetry_space_group_name_H-M   'P 1'
_cell_length_a   7.80541372
_cell_length_b   7.80226326
_cell_length_c   7.79445124
_cell_angle_alpha   59.86113739
_cell_angle_beta   59.82938004
_cell_angle_gamma   59.80307007
_symmetry_Int_Tables_number   1
_chemical_formula_structural   KRb2ScCl6
_chemical_formula_sum   'K1 Rb2 Sc1 Cl6'
_cell_volume   334.36419093
_cell_formula_units_Z   1
loop_
 _symmetry_equiv_pos_site_id
 _symmetry_equiv_pos_as_xyz
  1  'x, y, z'
loop_
 _atom_site_type_symbol
 _atom_site_label
 _atom_site_symmetry_multiplicity
 _atom_site_fract_x
 _atom_site_fract_y
 _atom_site_fract_z
 _atom_site_occupancy
  K  K0  1  0.85531127  0.23022415  0.74358648  1
  Rb  Rb1  1  0.60435331  0.97905993  0.49348316  1
  Rb  Rb2  1  0.10442646  0.47895038  0.99422657  1
  Sc  Sc3  1  0.35525215  0.72980934  0.24331836  1
  Cl  Cl4  1  0.58149529  0.50295496  0.46998864  1
  Cl  Cl5  1  0.12681174  0.95839822  0.46993539  1
  Cl  Cl6  1  0.12695293  0.50275320  0.47050732  1
  Cl  Cl7  1  0.58197170  0.95827323  0.01493751  1
  Cl  Cl8  1  0.12715007  0.95800197  0.01508939  1
  Cl  Cl9  1  0.58122551  0.50278693  0.01502089  1
