# generated using pymatgen
data_KRb2LuCl6
_symmetry_space_group_name_H-M   'P 1'
_cell_length_a   7.86900806
_cell_length_b   7.88755035
_cell_length_c   7.87214899
_cell_angle_alpha   59.83433914
_cell_angle_beta   59.75293732
_cell_angle_gamma   60.09320450
_symmetry_Int_Tables_number   1
_chemical_formula_structural   KRb2LuCl6
_chemical_formula_sum   'K1 Rb2 Lu1 Cl6'
_cell_volume   344.65244145
_cell_formula_units_Z   1
loop_
 _symmetry_equiv_pos_site_id
 _symmetry_equiv_pos_as_xyz
  1  'x, y, z'
loop_
 _atom_site_type_symbol
 _atom_site_label
 _atom_site_symmetry_multiplicity
 _atom_site_fract_x
 _atom_site_fract_y
 _atom_site_fract_z
 _atom_site_occupancy
  K  K0  1  0.61491758  0.57332098  0.26409215  1
  Rb  Rb1  1  0.36427510  0.32335305  0.01320663  1
  Rb  Rb2  1  0.86511010  0.82215267  0.51333100  1
  Lu  Lu3  1  0.11388288  0.07371137  0.76351619  1
  Cl  Cl4  1  0.34534568  0.84213454  0.53159982  1
  Cl  Cl5  1  0.88366914  0.30488822  0.99447578  1
  Cl  Cl6  1  0.88392365  0.84247220  0.99390823  1
  Cl  Cl7  1  0.34534797  0.30467516  0.53140670  1
  Cl  Cl8  1  0.88400167  0.30424497  0.53118938  1
  Cl  Cl9  1  0.34545586  0.84299600  0.99437112  1
