# generated using pymatgen
data_KSrPrWO6
_symmetry_space_group_name_H-M   'P 1'
_cell_length_a   6.04863262
_cell_length_b   6.06224537
_cell_length_c   6.05683041
_cell_angle_alpha   59.86181259
_cell_angle_beta   59.61949921
_cell_angle_gamma   59.84452438
_symmetry_Int_Tables_number   1
_chemical_formula_structural   KSrPrWO6
_chemical_formula_sum   'K1 Sr1 Pr1 W1 O6'
_cell_volume   156.24091223
_cell_formula_units_Z   1
loop_
 _symmetry_equiv_pos_site_id
 _symmetry_equiv_pos_as_xyz
  1  'x, y, z'
loop_
 _atom_site_type_symbol
 _atom_site_label
 _atom_site_symmetry_multiplicity
 _atom_site_fract_x
 _atom_site_fract_y
 _atom_site_fract_z
 _atom_site_occupancy
  K  K0  1  0.51603740  0.07648356  0.01862243  1
  Sr  Sr1  1  0.01548874  0.57810134  0.51907539  1
  Pr  Pr2  1  0.76610655  0.32751888  0.26848647  1
  W  W3  1  0.26598099  0.82820934  0.76818639  1
  O  O4  1  0.49138924  0.60045022  0.99510938  1
  O  O5  1  0.03814765  0.05567054  0.53971440  1
  O  O6  1  0.03806806  0.05502141  0.99504721  1
  O  O7  1  0.03772741  0.60148555  0.99482650  1
  O  O8  1  0.49171534  0.60047656  0.53916752  1
  O  O9  1  0.49174494  0.05581853  0.53969747  1
