# generated using pymatgen
data_KZnF3
_symmetry_space_group_name_H-M   'P 1'
_cell_length_a   4.16226435
_cell_length_b   4.17164993
_cell_length_c   4.17246008
_cell_angle_alpha   89.92568970
_cell_angle_beta   89.86077118
_cell_angle_gamma   90.00679016
_symmetry_Int_Tables_number   1
_chemical_formula_structural   KZnF3
_chemical_formula_sum   'K1 Zn1 F3'
_cell_volume   72.44827604
_cell_formula_units_Z   1
loop_
 _symmetry_equiv_pos_site_id
 _symmetry_equiv_pos_as_xyz
  1  'x, y, z'
loop_
 _atom_site_type_symbol
 _atom_site_label
 _atom_site_symmetry_multiplicity
 _atom_site_fract_x
 _atom_site_fract_y
 _atom_site_fract_z
 _atom_site_occupancy
  K  K0  1  0.34243596  0.74014467  0.66968048  1
  Zn  Zn1  1  0.84213513  0.23960684  0.16977806  1
  F  F2  1  0.84204507  0.73966497  0.16970842  1
  F  F3  1  0.84099364  0.24006058  0.66897523  1
  F  F4  1  0.34138730  0.24016610  0.16989788  1
