# generated using pymatgen
data_KZnP
_symmetry_space_group_name_H-M   'P 1'
_cell_length_a   4.19134092
_cell_length_b   4.19203806
_cell_length_c   8.67688751
_cell_angle_alpha   89.82878876
_cell_angle_beta   89.99797058
_cell_angle_gamma   90.08251953
_symmetry_Int_Tables_number   1
_chemical_formula_structural   KZnP
_chemical_formula_sum   'K2 Zn2 P2'
_cell_volume   152.45433649
_cell_formula_units_Z   2
loop_
 _symmetry_equiv_pos_site_id
 _symmetry_equiv_pos_as_xyz
  1  'x, y, z'
loop_
 _atom_site_type_symbol
 _atom_site_label
 _atom_site_symmetry_multiplicity
 _atom_site_fract_x
 _atom_site_fract_y
 _atom_site_fract_z
 _atom_site_occupancy
  K  K0  1  0.34503976  0.87369853  0.03482949  1
  K  K1  1  0.84514076  0.37321654  0.36395234  1
  Zn  Zn2  1  0.84473521  0.87349504  0.70093292  1
  Zn  Zn3  1  0.34471044  0.37370270  0.70130259  1
  P  P4  1  0.84487641  0.37372419  0.86431229  1
  P  P5  1  0.34538865  0.87371039  0.53680414  1
