# generated using pymatgen
data_La2AlNi9H
_symmetry_space_group_name_H-M   'P 1'
_cell_length_a   3.96342349
_cell_length_b   3.93704081
_cell_length_c   11.55659199
_cell_angle_alpha   89.79702759
_cell_angle_beta   89.96136475
_cell_angle_gamma   90.20552826
_symmetry_Int_Tables_number   1
_chemical_formula_structural   La2AlNi9H
_chemical_formula_sum   'La2 Al1 Ni9 H1'
_cell_volume   180.32857628
_cell_formula_units_Z   1
loop_
 _symmetry_equiv_pos_site_id
 _symmetry_equiv_pos_as_xyz
  1  'x, y, z'
loop_
 _atom_site_type_symbol
 _atom_site_label
 _atom_site_symmetry_multiplicity
 _atom_site_fract_x
 _atom_site_fract_y
 _atom_site_fract_z
 _atom_site_occupancy
  La  La0  1  0.98674476  0.10854944  0.46895570  1
  La  La1  1  0.98701543  0.10831142  0.13801138  1
  Al  Al2  1  0.98680872  0.10842877  0.79845381  1
  Ni  Ni3  1  0.48682725  0.60901546  0.05995563  1
  Ni  Ni4  1  0.98695415  0.60871232  0.93254018  1
  Ni  Ni5  1  0.48722294  0.10839476  0.93809837  1
  Ni  Ni6  1  0.48713121  0.60857302  0.79871482  1
  Ni  Ni7  1  0.98656142  0.60870165  0.66030163  1
  Ni  Ni8  1  0.48710647  0.60855007  0.52928156  1
  Ni  Ni9  1  0.98645735  0.60887194  0.32238737  1
  Ni  Ni10  1  0.48699993  0.10806596  0.65827411  1
  Ni  Ni11  1  0.48670894  0.60919350  0.28205910  1
  H  H12  1  0.48734179  0.10716262  0.80067903  1
