# generated using pymatgen
data_La2BiN
_symmetry_space_group_name_H-M   'P 1'
_cell_length_a   4.87096786
_cell_length_b   4.85651064
_cell_length_c   9.45917416
_cell_angle_alpha   89.84246826
_cell_angle_beta   90.02996826
_cell_angle_gamma   89.92889404
_symmetry_Int_Tables_number   1
_chemical_formula_structural   La2BiN
_chemical_formula_sum   'La4 Bi2 N2'
_cell_volume   223.76429749
_cell_formula_units_Z   2
loop_
 _symmetry_equiv_pos_site_id
 _symmetry_equiv_pos_as_xyz
  1  'x, y, z'
loop_
 _atom_site_type_symbol
 _atom_site_label
 _atom_site_symmetry_multiplicity
 _atom_site_fract_x
 _atom_site_fract_y
 _atom_site_fract_z
 _atom_site_occupancy
  La  La0  1  0.24290286  0.41264069  0.66049111  1
  La  La1  1  0.74337858  0.41302815  0.33363232  1
  La  La2  1  0.24329212  0.91267234  0.99229532  1
  La  La3  1  0.74321282  0.91297221  0.65951800  1
  Bi  Bi4  1  0.74294716  0.41316995  0.96454471  1
  Bi  Bi5  1  0.24308763  0.91315913  0.36063626  1
  N  N6  1  0.74305570  0.41319707  0.57789022  1
  N  N7  1  0.24278736  0.91313189  0.74292654  1
