# generated using pymatgen
data_La2Co7
_symmetry_space_group_name_H-M   'P 1'
_cell_length_a   5.09586763
_cell_length_b   5.10481024
_cell_length_c   12.50323486
_cell_angle_alpha   78.21836853
_cell_angle_beta   78.15911102
_cell_angle_gamma   59.89176941
_symmetry_Int_Tables_number   1
_chemical_formula_structural   La2Co7
_chemical_formula_sum   'La4 Co14'
_cell_volume   273.40554555
_cell_formula_units_Z   2
loop_
 _symmetry_equiv_pos_site_id
 _symmetry_equiv_pos_as_xyz
  1  'x, y, z'
loop_
 _atom_site_type_symbol
 _atom_site_label
 _atom_site_symmetry_multiplicity
 _atom_site_fract_x
 _atom_site_fract_y
 _atom_site_fract_z
 _atom_site_occupancy
  La  La0  1  0.40509525  0.66419458  0.66308755  1
  La  La1  1  0.11008514  0.36756212  0.55344051  1
  La  La2  1  0.20725031  0.46468347  0.26152813  1
  La  La3  1  0.30906361  0.56784248  0.95538372  1
  Co  Co4  1  0.25444070  0.01471040  0.10830441  1
  Co  Co5  1  0.75408137  0.01400296  0.60895103  1
  Co  Co6  1  0.36482424  0.12324162  0.78351200  1
  Co  Co7  1  0.53567153  0.79595840  0.27023512  1
  Co  Co8  1  0.75430542  0.51541901  0.10869189  1
  Co  Co9  1  0.64695948  0.40698484  0.43241093  1
  Co  Co10  1  0.64643437  0.90768331  0.43484816  1
  Co  Co11  1  0.64421457  0.90444589  0.94287866  1
  Co  Co12  1  0.86434615  0.62554616  0.78351742  1
  Co  Co13  1  0.75437707  0.01454781  0.10854958  1
  Co  Co14  1  0.86398619  0.12376876  0.78316659  1
  Co  Co15  1  0.86758280  0.12777208  0.27129653  1
  Co  Co16  1  0.14572629  0.90792251  0.43311757  1
  Co  Co17  1  0.97643381  0.23423456  0.94249535  1
