# generated using pymatgen
data_La2NiRuO6
_symmetry_space_group_name_H-M   'P 1'
_cell_length_a   5.55727434
_cell_length_b   5.82886076
_cell_length_c   7.78147268
_cell_angle_alpha   89.87028503
_cell_angle_beta   89.83300781
_cell_angle_gamma   90.03017426
_symmetry_Int_Tables_number   1
_chemical_formula_structural   La2NiRuO6
_chemical_formula_sum   'La4 Ni2 Ru2 O12'
_cell_volume   252.06021109
_cell_formula_units_Z   2
loop_
 _symmetry_equiv_pos_site_id
 _symmetry_equiv_pos_as_xyz
  1  'x, y, z'
loop_
 _atom_site_type_symbol
 _atom_site_label
 _atom_site_symmetry_multiplicity
 _atom_site_fract_x
 _atom_site_fract_y
 _atom_site_fract_z
 _atom_site_occupancy
  La  La0  1  0.86518753  0.53239363  0.54924136  1
  La  La1  1  0.36454803  0.91807216  0.07304370  1
  La  La2  1  0.39690432  0.03151920  0.55012405  1
  La  La3  1  0.89450920  0.41819265  0.07325328  1
  Ni  Ni4  1  0.87993360  0.97386456  0.31141680  1
  Ni  Ni5  1  0.37944719  0.47421467  0.31193948  1
  Ru  Ru6  1  0.37991938  0.47389629  0.81136352  1
  Ru  Ru7  1  0.87983239  0.97363061  0.81144524  1
  O  O8  1  0.57896811  0.76949155  0.35958514  1
  O  O9  1  0.57726288  0.76933098  0.75948584  1
  O  O10  1  0.28511563  0.44753152  0.57110238  1
  O  O11  1  0.18269099  0.17880040  0.86045974  1
  O  O12  1  0.18170260  0.17870986  0.26245657  1
  O  O13  1  0.68297547  0.26906246  0.36014777  1
  O  O14  1  0.68201530  0.27021506  0.75949574  1
  O  O15  1  0.47769222  0.50051087  0.05079133  1
  O  O16  1  0.07863604  0.67706275  0.85939616  1
  O  O17  1  0.97803032  0.94690049  0.56394631  1
  O  O18  1  0.78488767  0.00078595  0.05432777  1
  O  O19  1  0.07749058  0.67866504  0.26179045  1
