# generated using pymatgen
data_La2PdRu
_symmetry_space_group_name_H-M   'P 1'
_cell_length_a   5.10396147
_cell_length_b   5.10663748
_cell_length_c   5.09977722
_cell_angle_alpha   59.81587219
_cell_angle_beta   59.80485153
_cell_angle_gamma   59.98873520
_symmetry_Int_Tables_number   1
_chemical_formula_structural   La2PdRu
_chemical_formula_sum   'La2 Pd1 Ru1'
_cell_volume   93.71109723
_cell_formula_units_Z   1
loop_
 _symmetry_equiv_pos_site_id
 _symmetry_equiv_pos_as_xyz
  1  'x, y, z'
loop_
 _atom_site_type_symbol
 _atom_site_label
 _atom_site_symmetry_multiplicity
 _atom_site_fract_x
 _atom_site_fract_y
 _atom_site_fract_z
 _atom_site_occupancy
  La  La0  1  0.79199272  0.76883352  0.04154176  1
  La  La1  1  0.29154897  0.26855555  0.54168248  1
  Pd  Pd2  1  0.04155791  0.01845552  0.29185835  1
  Ru  Ru3  1  0.54158366  0.51811731  0.79193437  1
