# generated using pymatgen
data_La4YC10
_symmetry_space_group_name_H-M   'P 1'
_cell_length_a   3.95403671
_cell_length_b   3.99025059
_cell_length_c   17.52124596
_cell_angle_alpha   90.14785767
_cell_angle_beta   89.91800690
_cell_angle_gamma   119.82591248
_symmetry_Int_Tables_number   1
_chemical_formula_structural   La4YC10
_chemical_formula_sum   'La4 Y1 C10'
_cell_volume   239.82486676
_cell_formula_units_Z   1
loop_
 _symmetry_equiv_pos_site_id
 _symmetry_equiv_pos_as_xyz
  1  'x, y, z'
loop_
 _atom_site_type_symbol
 _atom_site_label
 _atom_site_symmetry_multiplicity
 _atom_site_fract_x
 _atom_site_fract_y
 _atom_site_fract_z
 _atom_site_occupancy
  La  La0  1  0.95114243  0.26438266  0.10783810  1
  La  La1  1  0.61813593  0.59879434  0.51297587  1
  La  La2  1  0.28476277  0.93100846  0.31095740  1
  La  La3  1  0.61798203  0.60052508  0.91774404  1
  Y  Y4  1  0.95128626  0.26376069  0.69476622  1
  C  C5  1  0.28363901  0.93028796  0.63697147  1
  C  C6  1  0.95148957  0.26449588  0.93765974  1
  C  C7  1  0.61829919  0.59769118  0.23966484  1
  C  C8  1  0.28479311  0.93053889  0.01562625  1
  C  C9  1  0.95107323  0.26451033  0.38467762  1
  C  C10  1  0.95118064  0.26401547  0.84350276  1
  C  C11  1  0.61849523  0.59831059  0.74029845  1
  C  C12  1  0.61833400  0.59786993  0.19349557  1
  C  C13  1  0.95130956  0.26407686  0.43579280  1
  C  C14  1  0.28437632  0.93087530  0.59100324  1
