# generated using pymatgen
data_LaB2Rh3
_symmetry_space_group_name_H-M   'P 1'
_cell_length_a   3.18868780
_cell_length_b   5.58850384
_cell_length_c   5.57610369
_cell_angle_alpha   120.22968292
_cell_angle_beta   90.19840240
_cell_angle_gamma   90.23648071
_symmetry_Int_Tables_number   1
_chemical_formula_structural   LaB2Rh3
_chemical_formula_sum   'La1 B2 Rh3'
_cell_volume   85.85124341
_cell_formula_units_Z   1
loop_
 _symmetry_equiv_pos_site_id
 _symmetry_equiv_pos_as_xyz
  1  'x, y, z'
loop_
 _atom_site_type_symbol
 _atom_site_label
 _atom_site_symmetry_multiplicity
 _atom_site_fract_x
 _atom_site_fract_y
 _atom_site_fract_z
 _atom_site_occupancy
  La  La0  1  0.21029203  0.25946686  0.24975608  1
  B  B1  1  0.21049441  0.59282291  0.91714013  1
  B  B2  1  0.21096149  0.92549896  0.58454043  1
  Rh  Rh3  1  0.71103203  0.75933951  0.74969733  1
  Rh  Rh4  1  0.71065271  0.25910956  0.74955457  1
  Rh  Rh5  1  0.71020693  0.75919616  0.24958202  1
