# generated using pymatgen
data_LaCe(B2Rh3)2
_symmetry_space_group_name_H-M   'P 1'
_cell_length_a   5.53680468
_cell_length_b   5.56101608
_cell_length_c   6.32632828
_cell_angle_alpha   90.27830505
_cell_angle_beta   89.99691772
_cell_angle_gamma   58.44702911
_symmetry_Int_Tables_number   1
_chemical_formula_structural   LaCe(B2Rh3)2
_chemical_formula_sum   'La1 Ce1 B4 Rh6'
_cell_volume   165.98827983
_cell_formula_units_Z   1
loop_
 _symmetry_equiv_pos_site_id
 _symmetry_equiv_pos_as_xyz
  1  'x, y, z'
loop_
 _atom_site_type_symbol
 _atom_site_label
 _atom_site_symmetry_multiplicity
 _atom_site_fract_x
 _atom_site_fract_y
 _atom_site_fract_z
 _atom_site_occupancy
  La  La0  1  0.92363387  0.05714089  0.21763141  1
  Ce  Ce1  1  0.92398393  0.05668065  0.71798998  1
  B  B2  1  0.59059572  0.72543955  0.71926135  1
  B  B3  1  0.59086567  0.72548294  0.21920688  1
  B  B4  1  0.25659382  0.38865846  0.71884185  1
  B  B5  1  0.25649917  0.38927016  0.21884690  1
  Rh  Rh6  1  0.42438594  0.55608082  0.96785194  1
  Rh  Rh7  1  0.42372525  0.05599119  0.46944022  1
  Rh  Rh8  1  0.92397016  0.55609024  0.96701342  1
  Rh  Rh9  1  0.92330217  0.55584788  0.46967226  1
  Rh  Rh10  1  0.42367089  0.05604585  0.96741241  1
  Rh  Rh11  1  0.42373574  0.55619943  0.46974343  1
