# generated using pymatgen
data_LaCoSi2
_symmetry_space_group_name_H-M   'P 1'
_cell_length_a   4.22489023
_cell_length_b   4.32108259
_cell_length_c   8.27202702
_cell_angle_alpha   104.86333466
_cell_angle_beta   89.97660828
_cell_angle_gamma   90.02313995
_symmetry_Int_Tables_number   1
_chemical_formula_structural   LaCoSi2
_chemical_formula_sum   'La2 Co2 Si4'
_cell_volume   145.96203476
_cell_formula_units_Z   2
loop_
 _symmetry_equiv_pos_site_id
 _symmetry_equiv_pos_as_xyz
  1  'x, y, z'
loop_
 _atom_site_type_symbol
 _atom_site_label
 _atom_site_symmetry_multiplicity
 _atom_site_fract_x
 _atom_site_fract_y
 _atom_site_fract_z
 _atom_site_occupancy
  La  La0  1  0.96776605  0.99550736  0.86120331  1
  La  La1  1  0.46779329  0.78022772  0.43494198  1
  Co  Co2  1  0.46759215  0.57017118  0.01717502  1
  Co  Co3  1  0.96767038  0.20290396  0.27262828  1
  Si  Si4  1  0.46766943  0.42896771  0.73595232  1
  Si  Si5  1  0.46773034  0.13570458  0.14456119  1
  Si  Si6  1  0.96789861  0.34246832  0.55588847  1
  Si  Si7  1  0.96766567  0.63576764  0.14417765  1
