# generated using pymatgen
data_LaCuPb
_symmetry_space_group_name_H-M   'P 1'
_cell_length_a   4.74108839
_cell_length_b   4.71588898
_cell_length_c   7.98990011
_cell_angle_alpha   89.95611572
_cell_angle_beta   89.63090515
_cell_angle_gamma   120.60491180
_symmetry_Int_Tables_number   1
_chemical_formula_structural   LaCuPb
_chemical_formula_sum   'La2 Cu2 Pb2'
_cell_volume   153.75178037
_cell_formula_units_Z   2
loop_
 _symmetry_equiv_pos_site_id
 _symmetry_equiv_pos_as_xyz
  1  'x, y, z'
loop_
 _atom_site_type_symbol
 _atom_site_label
 _atom_site_symmetry_multiplicity
 _atom_site_fract_x
 _atom_site_fract_y
 _atom_site_fract_z
 _atom_site_occupancy
  La  La0  1  0.07518106  0.22363555  0.35761479  1
  La  La1  1  0.07536867  0.22347361  0.85740614  1
  Cu  Cu2  1  0.74177480  0.55696696  0.10814539  1
  Cu  Cu3  1  0.40848419  0.89030772  0.60756296  1
  Pb  Pb4  1  0.74182063  0.55653411  0.60748994  1
  Pb  Pb5  1  0.40841255  0.89036340  0.10726286  1
