# generated using pymatgen
data_LaFeCuNi3
_symmetry_space_group_name_H-M   'P 1'
_cell_length_a   4.02588511
_cell_length_b   5.09273291
_cell_length_c   5.08143616
_cell_angle_alpha   59.71218109
_cell_angle_beta   89.76850128
_cell_angle_gamma   90.12774658
_symmetry_Int_Tables_number   1
_chemical_formula_structural   LaFeCuNi3
_chemical_formula_sum   'La1 Fe1 Cu1 Ni3'
_cell_volume   89.96087031
_cell_formula_units_Z   1
loop_
 _symmetry_equiv_pos_site_id
 _symmetry_equiv_pos_as_xyz
  1  'x, y, z'
loop_
 _atom_site_type_symbol
 _atom_site_label
 _atom_site_symmetry_multiplicity
 _atom_site_fract_x
 _atom_site_fract_y
 _atom_site_fract_z
 _atom_site_occupancy
  La  La0  1  0.22047220  0.65999460  0.47548309  1
  Fe  Fe1  1  0.72101712  0.15985432  0.97587818  1
  Cu  Cu2  1  0.22030802  0.99085009  0.80980510  1
  Ni  Ni3  1  0.22030753  0.32798219  0.14136045  1
  Ni  Ni4  1  0.72029954  0.65881115  0.97603261  1
  Ni  Ni5  1  0.72066963  0.15993637  0.47447616  1
