# generated using pymatgen
data_LaFe4(CuO4)3
_symmetry_space_group_name_H-M   'P 1'
_cell_length_a   6.45408297
_cell_length_b   6.45987177
_cell_length_c   6.46264648
_cell_angle_alpha   109.00099945
_cell_angle_beta   109.21559906
_cell_angle_gamma   109.40258789
_symmetry_Int_Tables_number   1
_chemical_formula_structural   LaFe4(CuO4)3
_chemical_formula_sum   'La1 Fe4 Cu3 O12'
_cell_volume   209.42532808
_cell_formula_units_Z   1
loop_
 _symmetry_equiv_pos_site_id
 _symmetry_equiv_pos_as_xyz
  1  'x, y, z'
loop_
 _atom_site_type_symbol
 _atom_site_label
 _atom_site_symmetry_multiplicity
 _atom_site_fract_x
 _atom_site_fract_y
 _atom_site_fract_z
 _atom_site_occupancy
  La  La0  1  0.77051729  0.14787000  0.82919490  1
  Fe  Fe1  1  0.77030522  0.64842099  0.82875919  1
  Fe  Fe2  1  0.77060896  0.64729369  0.32885945  1
  Fe  Fe3  1  0.77104467  0.14862531  0.32883990  1
  Fe  Fe4  1  0.27117592  0.64848101  0.82845700  1
  Cu  Cu5  1  0.27107009  0.14774635  0.82852447  1
  Cu  Cu6  1  0.27043828  0.14811747  0.32866043  1
  Cu  Cu7  1  0.27152967  0.64912754  0.32840464  1
  O  O8  1  0.25872058  0.31956655  0.14206021  1
  O  O9  1  0.59637368  0.45870420  0.96344799  1
  O  O10  1  0.46484652  0.01003147  0.99568093  1
  O  O11  1  0.91055894  0.97137338  0.14154078  1
  O  O12  1  0.08128008  0.28867134  0.66340464  1
  O  O13  1  0.46474817  0.67053092  0.65703803  1
  O  O14  1  0.95345753  0.83556271  0.69999832  1
  O  O15  1  0.62746257  0.31740296  0.51535940  1
  O  O16  1  0.59694624  0.83536762  0.34663650  1
  O  O17  1  0.94903350  0.45738629  0.31208649  1
  O  O18  1  0.28402308  0.97318196  0.51531655  1
  O  O19  1  0.08375675  0.62105316  0.99615496  1
