# generated using pymatgen
data_LaNd3(GaO3)4
_symmetry_space_group_name_H-M   'P 1'
_cell_length_a   5.49033117
_cell_length_b   5.68914461
_cell_length_c   7.80616856
_cell_angle_alpha   89.92221069
_cell_angle_beta   89.95396423
_cell_angle_gamma   89.92475891
_symmetry_Int_Tables_number   1
_chemical_formula_structural   LaNd3(GaO3)4
_chemical_formula_sum   'La1 Nd3 Ga4 O12'
_cell_volume   243.82740977
_cell_formula_units_Z   1
loop_
 _symmetry_equiv_pos_site_id
 _symmetry_equiv_pos_as_xyz
  1  'x, y, z'
loop_
 _atom_site_type_symbol
 _atom_site_label
 _atom_site_symmetry_multiplicity
 _atom_site_fract_x
 _atom_site_fract_y
 _atom_site_fract_z
 _atom_site_occupancy
  La  La0  1  0.52273703  0.68542182  0.83531225  1
  Nd  Nd1  1  0.99492204  0.18147480  0.83535951  1
  Nd  Nd2  1  0.49505192  0.79162204  0.33531499  1
  Nd  Nd3  1  0.02354025  0.29054570  0.33505940  1
  Ga  Ga4  1  0.50928694  0.23510493  0.08548824  1
  Ga  Ga5  1  0.01026115  0.73498762  0.08649409  1
  Ga  Ga6  1  0.00989247  0.73495579  0.58536971  1
  Ga  Ga7  1  0.50973809  0.23485938  0.58616132  1
  O  O8  1  0.21495272  0.02807763  0.13305107  1
  O  O9  1  0.21490368  0.02780300  0.53685170  1
  O  O10  1  0.59983027  0.20994814  0.33549765  1
  O  O11  1  0.80653048  0.44061932  0.03758828  1
  O  O12  1  0.41622293  0.25630865  0.83555126  1
  O  O13  1  0.09792622  0.75880969  0.83557314  1
  O  O14  1  0.71513677  0.94199854  0.03863931  1
  O  O15  1  0.80597204  0.44016904  0.63293278  1
  O  O16  1  0.91567320  0.71072489  0.33564284  1
  O  O17  1  0.71545833  0.94321340  0.63149190  1
  O  O18  1  0.30541429  0.52779293  0.53599560  1
  O  O19  1  0.30537641  0.52678961  0.13415740  1
