# generated using pymatgen
data_LaNiC2
_symmetry_space_group_name_H-M   'P 1'
_cell_length_a   3.91364765
_cell_length_b   3.95456433
_cell_length_c   3.93000031
_cell_angle_alpha   90.48509216
_cell_angle_beta   90.58581543
_cell_angle_gamma   107.94947052
_symmetry_Int_Tables_number   1
_chemical_formula_structural   LaNiC2
_chemical_formula_sum   'La1 Ni1 C2'
_cell_volume   57.85600602
_cell_formula_units_Z   1
loop_
 _symmetry_equiv_pos_site_id
 _symmetry_equiv_pos_as_xyz
  1  'x, y, z'
loop_
 _atom_site_type_symbol
 _atom_site_label
 _atom_site_symmetry_multiplicity
 _atom_site_fract_x
 _atom_site_fract_y
 _atom_site_fract_z
 _atom_site_occupancy
  La  La0  1  0.33365378  0.64138544  0.39589387  1
  Ni  Ni1  1  0.69438827  0.27056274  0.90623993  1
  C  C2  1  0.86632496  0.82198358  0.91151923  1
  C  C3  1  0.14102359  0.12249444  0.81527823  1
