# generated using pymatgen
data_LaPdPb
_symmetry_space_group_name_H-M   'P 1'
_cell_length_a   4.16772699
_cell_length_b   8.07587147
_cell_length_c   8.07040596
_cell_angle_alpha   119.99301910
_cell_angle_beta   89.92850494
_cell_angle_gamma   90.06396484
_symmetry_Int_Tables_number   1
_chemical_formula_structural   LaPdPb
_chemical_formula_sum   'La3 Pd3 Pb3'
_cell_volume   235.25822256
_cell_formula_units_Z   3
loop_
 _symmetry_equiv_pos_site_id
 _symmetry_equiv_pos_as_xyz
  1  'x, y, z'
loop_
 _atom_site_type_symbol
 _atom_site_label
 _atom_site_symmetry_multiplicity
 _atom_site_fract_x
 _atom_site_fract_y
 _atom_site_fract_z
 _atom_site_occupancy
  La  La0  1  0.89300299  0.43099967  0.05723887  1
  La  La1  1  0.89309072  0.02190264  0.23859090  1
  La  La2  1  0.89253879  0.61009765  0.64728731  1
  Pd  Pd3  1  0.39261279  0.35561743  0.31354922  1
  Pd  Pd4  1  0.89272183  0.02201250  0.64699697  1
  Pd  Pd5  1  0.39254555  0.68891567  0.98017764  1
  Pb  Pb6  1  0.39302707  0.27746773  0.64679801  1
  Pb  Pb7  1  0.39295903  0.76693529  0.39124098  1
  Pb  Pb8  1  0.39302593  0.02055068  0.90348566  1
