# generated using pymatgen
data_LaPr3
_symmetry_space_group_name_H-M   'P 1'
_cell_length_a   5.27198219
_cell_length_b   5.27498198
_cell_length_c   6.49103260
_cell_angle_alpha   114.36949158
_cell_angle_beta   114.39867401
_cell_angle_gamma   90.03659058
_symmetry_Int_Tables_number   1
_chemical_formula_structural   LaPr3
_chemical_formula_sum   'La1 Pr3'
_cell_volume   146.52607106
_cell_formula_units_Z   1
loop_
 _symmetry_equiv_pos_site_id
 _symmetry_equiv_pos_as_xyz
  1  'x, y, z'
loop_
 _atom_site_type_symbol
 _atom_site_label
 _atom_site_symmetry_multiplicity
 _atom_site_fract_x
 _atom_site_fract_y
 _atom_site_fract_z
 _atom_site_occupancy
  La  La0  1  0.80097622  0.69966108  0.73791349  1
  Pr  Pr1  1  0.55068332  0.94935149  0.23829244  1
  Pr  Pr2  1  0.30129477  0.20011929  0.73783976  1
  Pr  Pr3  1  0.05067033  0.44935822  0.23840582  1
