# generated using pymatgen
data_LaPr3Al4O12
_symmetry_space_group_name_H-M   'P 1'
_cell_length_a   5.33727360
_cell_length_b   5.30948210
_cell_length_c   7.72257280
_cell_angle_alpha   90.00330353
_cell_angle_beta   89.95466614
_cell_angle_gamma   89.82281494
_symmetry_Int_Tables_number   1
_chemical_formula_structural   LaPr3Al4O12
_chemical_formula_sum   'La1 Pr3 Al4 O12'
_cell_volume   218.84237771
_cell_formula_units_Z   1
loop_
 _symmetry_equiv_pos_site_id
 _symmetry_equiv_pos_as_xyz
  1  'x, y, z'
loop_
 _atom_site_type_symbol
 _atom_site_label
 _atom_site_symmetry_multiplicity
 _atom_site_fract_x
 _atom_site_fract_y
 _atom_site_fract_z
 _atom_site_occupancy
  La  La0  1  0.33293501  0.09882430  0.86307436  1
  Pr  Pr1  1  0.83321297  0.59868097  0.86223787  1
  Pr  Pr2  1  0.83320493  0.59828573  0.36296010  1
  Pr  Pr3  1  0.33390993  0.09895150  0.36349860  1
  Al  Al4  1  0.33331481  0.59783304  0.61354512  1
  Al  Al5  1  0.83341998  0.09830546  0.11277891  1
  Al  Al6  1  0.83309489  0.09726968  0.61327457  1
  Al  Al7  1  0.33316496  0.59816319  0.11346405  1
  O  O8  1  0.11703462  0.87839007  0.61331367  1
  O  O9  1  0.61763084  0.81604713  0.61415082  1
  O  O10  1  0.05354557  0.37791047  0.61336076  1
  O  O11  1  0.55325741  0.31818545  0.11389423  1
  O  O12  1  0.33308041  0.59896982  0.36451882  1
  O  O13  1  0.33331284  0.59912366  0.86362696  1
  O  O14  1  0.83283085  0.09852786  0.36381701  1
  O  O15  1  0.11744916  0.87863165  0.11452463  1
  O  O16  1  0.83293343  0.09893570  0.86327696  1
  O  O17  1  0.61704266  0.81461507  0.11413464  1
  O  O18  1  0.55339438  0.31790280  0.61344451  1
  O  O19  1  0.05384620  0.37775868  0.11326959  1
