# generated using pymatgen
data_LaTb3
_symmetry_space_group_name_H-M   'P 1'
_cell_length_a   5.92334890
_cell_length_b   7.32814789
_cell_length_c   7.32553482
_cell_angle_alpha   120.19242096
_cell_angle_beta   89.94361877
_cell_angle_gamma   89.95153809
_symmetry_Int_Tables_number   1
_chemical_formula_structural   LaTb3
_chemical_formula_sum   'La2 Tb6'
_cell_volume   274.84347186
_cell_formula_units_Z   2
loop_
 _symmetry_equiv_pos_site_id
 _symmetry_equiv_pos_as_xyz
  1  'x, y, z'
loop_
 _atom_site_type_symbol
 _atom_site_label
 _atom_site_symmetry_multiplicity
 _atom_site_fract_x
 _atom_site_fract_y
 _atom_site_fract_z
 _atom_site_occupancy
  La  La0  1  0.68219155  0.21185479  0.80901718  1
  La  La1  1  0.18165132  0.54610986  0.47613341  1
  Tb  Tb2  1  0.18201292  0.54962111  0.97819781  1
  Tb  Tb3  1  0.68211854  0.71527755  0.30900484  1
  Tb  Tb4  1  0.68181908  0.20966236  0.30850717  1
  Tb  Tb5  1  0.18193969  0.04374644  0.47355366  1
  Tb  Tb6  1  0.18220264  0.04295251  0.97814447  1
  Tb  Tb7  1  0.68217158  0.71507138  0.81335777  1
