# generated using pymatgen
data_LaTh
_symmetry_space_group_name_H-M   'P 1'
_cell_length_a   3.67730236
_cell_length_b   3.64751554
_cell_length_c   6.03254890
_cell_angle_alpha   89.81409454
_cell_angle_beta   89.67004395
_cell_angle_gamma   120.12860870
_symmetry_Int_Tables_number   1
_chemical_formula_structural   LaTh
_chemical_formula_sum   'La1 Th1'
_cell_volume   69.98026176
_cell_formula_units_Z   1
loop_
 _symmetry_equiv_pos_site_id
 _symmetry_equiv_pos_as_xyz
  1  'x, y, z'
loop_
 _atom_site_type_symbol
 _atom_site_label
 _atom_site_symmetry_multiplicity
 _atom_site_fract_x
 _atom_site_fract_y
 _atom_site_fract_z
 _atom_site_occupancy
  La  La0  1  0.45844609  0.20689866  0.79109091  1
  Th  Th1  1  0.79271317  0.87337834  0.29105073  1
