# generated using pymatgen
data_LaTm(Ge2Ir)2
_symmetry_space_group_name_H-M   'P 1'
_cell_length_a   4.27395487
_cell_length_b   8.52382660
_cell_length_c   9.38319397
_cell_angle_alpha   105.68409729
_cell_angle_beta   103.12931824
_cell_angle_gamma   90.18924713
_symmetry_Int_Tables_number   1
_chemical_formula_structural   LaTm(Ge2Ir)2
_chemical_formula_sum   'La2 Tm2 Ge8 Ir4'
_cell_volume   319.73930986
_cell_formula_units_Z   2
loop_
 _symmetry_equiv_pos_site_id
 _symmetry_equiv_pos_as_xyz
  1  'x, y, z'
loop_
 _atom_site_type_symbol
 _atom_site_label
 _atom_site_symmetry_multiplicity
 _atom_site_fract_x
 _atom_site_fract_y
 _atom_site_fract_z
 _atom_site_occupancy
  La  La0  1  0.45007959  0.65616828  0.41514772  1
  La  La1  1  0.69077730  0.20222890  0.90388715  1
  Tm  Tm2  1  0.03156723  0.30356577  0.57802057  1
  Tm  Tm3  1  0.25395793  0.82260400  0.02469751  1
  Ge  Ge4  1  0.82388419  0.06557884  0.17492178  1
  Ge  Ge5  1  0.20077673  0.45554379  0.91846889  1
  Ge  Ge6  1  0.32020879  0.26778683  0.15687688  1
  Ge  Ge7  1  0.53154665  0.05211699  0.57597172  1
  Ge  Ge8  1  0.64046896  0.83722413  0.79472172  1
  Ge  Ge9  1  0.07805212  0.64460778  0.67170554  1
  Ge  Ge10  1  0.80259430  0.60319942  0.11970113  1
  Ge  Ge11  1  0.93244523  0.91817367  0.38382435  1
  Ir  Ir12  1  0.64644670  0.55211985  0.81064171  1
  Ir  Ir13  1  0.07636607  0.93971300  0.66640282  1
  Ir  Ir14  1  0.40976858  0.10813360  0.34029037  1
  Ir  Ir15  1  0.87084401  0.37955555  0.26525271  1
