# generated using pymatgen
data_LaZn
_symmetry_space_group_name_H-M   'P 1'
_cell_length_a   3.77216721
_cell_length_b   3.75483370
_cell_length_c   3.76425886
_cell_angle_alpha   89.84894562
_cell_angle_beta   90.24900055
_cell_angle_gamma   90.14469147
_symmetry_Int_Tables_number   1
_chemical_formula_structural   LaZn
_chemical_formula_sum   'La1 Zn1'
_cell_volume   53.31558031
_cell_formula_units_Z   1
loop_
 _symmetry_equiv_pos_site_id
 _symmetry_equiv_pos_as_xyz
  1  'x, y, z'
loop_
 _atom_site_type_symbol
 _atom_site_label
 _atom_site_symmetry_multiplicity
 _atom_site_fract_x
 _atom_site_fract_y
 _atom_site_fract_z
 _atom_site_occupancy
  La  La0  1  0.19686249  0.70749325  0.01270922  1
  Zn  Zn1  1  0.69690853  0.20713530  0.51311523  1
