# generated using pymatgen
data_Li(MoO2)2
_symmetry_space_group_name_H-M   'P 1'
_cell_length_a   5.32867527
_cell_length_b   5.57302475
_cell_length_c   6.23897076
_cell_angle_alpha   86.32331085
_cell_angle_beta   85.82946014
_cell_angle_gamma   87.11414337
_symmetry_Int_Tables_number   1
_chemical_formula_structural   Li(MoO2)2
_chemical_formula_sum   'Li2 Mo4 O8'
_cell_volume   184.21242054
_cell_formula_units_Z   2
loop_
 _symmetry_equiv_pos_site_id
 _symmetry_equiv_pos_as_xyz
  1  'x, y, z'
loop_
 _atom_site_type_symbol
 _atom_site_label
 _atom_site_symmetry_multiplicity
 _atom_site_fract_x
 _atom_site_fract_y
 _atom_site_fract_z
 _atom_site_occupancy
  Li  Li0  1  0.75844622  0.85288697  0.52824622  1
  Li  Li1  1  0.44304663  0.66296697  0.26052773  1
  Mo  Mo2  1  0.15491830  0.16361886  0.03222343  1
  Mo  Mo3  1  0.65625638  0.16163640  0.02914315  1
  Mo  Mo4  1  0.15996997  0.66281438  0.78302348  1
  Mo  Mo5  1  0.17501280  0.17703579  0.51765800  1
  O  O6  1  0.91293710  0.47283000  0.01310449  1
  O  O7  1  0.39467564  0.31614810  0.25632095  1
  O  O8  1  0.37729889  0.85321289  0.55231357  1
  O  O9  1  0.97348994  0.50628924  0.55660391  1
  O  O10  1  0.38491631  0.86143667  0.01367834  1
  O  O11  1  0.38963327  0.33223921  0.78861839  1
  O  O12  1  0.92958498  0.00530854  0.79109854  1
  O  O13  1  0.92768145  0.04610191  0.30355710  1
