# generated using pymatgen
data_Li(NiS)2
_symmetry_space_group_name_H-M   'P 1'
_cell_length_a   3.67233491
_cell_length_b   3.66439486
_cell_length_c   5.68494081
_cell_angle_alpha   89.79071808
_cell_angle_beta   89.71647644
_cell_angle_gamma   89.99513245
_symmetry_Int_Tables_number   1
_chemical_formula_structural   Li(NiS)2
_chemical_formula_sum   'Li1 Ni2 S2'
_cell_volume   76.50014849
_cell_formula_units_Z   1
loop_
 _symmetry_equiv_pos_site_id
 _symmetry_equiv_pos_as_xyz
  1  'x, y, z'
loop_
 _atom_site_type_symbol
 _atom_site_label
 _atom_site_symmetry_multiplicity
 _atom_site_fract_x
 _atom_site_fract_y
 _atom_site_fract_z
 _atom_site_occupancy
  Li  Li0  1  0.33182329  0.94105524  0.60214663  1
  Ni  Ni1  1  0.33160838  0.44103172  0.96216041  1
  Ni  Ni2  1  0.83195037  0.94083494  0.96209419  1
  S  S3  1  0.33159354  0.94065922  0.17666601  1
  S  S4  1  0.83224452  0.44079980  0.73034698  1
