# generated using pymatgen
data_Li(SiRh)2
_symmetry_space_group_name_H-M   'P 1'
_cell_length_a   4.02520084
_cell_length_b   5.29451132
_cell_length_c   6.31713533
_cell_angle_alpha   90.09336090
_cell_angle_beta   89.87236786
_cell_angle_gamma   90.00854492
_symmetry_Int_Tables_number   1
_chemical_formula_structural   Li(SiRh)2
_chemical_formula_sum   'Li2 Si4 Rh4'
_cell_volume   134.62693499
_cell_formula_units_Z   2
loop_
 _symmetry_equiv_pos_site_id
 _symmetry_equiv_pos_as_xyz
  1  'x, y, z'
loop_
 _atom_site_type_symbol
 _atom_site_label
 _atom_site_symmetry_multiplicity
 _atom_site_fract_x
 _atom_site_fract_y
 _atom_site_fract_z
 _atom_site_occupancy
  Li  Li0  1  0.64061880  0.13135405  0.26237723  1
  Li  Li1  1  0.14077798  0.63932604  0.76273239  1
  Si  Si2  1  0.64109153  0.94784260  0.86974174  1
  Si  Si3  1  0.64057624  0.69564998  0.45451197  1
  Si  Si4  1  0.14112163  0.81291521  0.16655113  1
  Si  Si5  1  0.14069487  0.07650157  0.57168490  1
  Rh  Rh6  1  0.64062923  0.31232098  0.66418290  1
  Rh  Rh7  1  0.64104688  0.57906419  0.07096149  1
  Rh  Rh8  1  0.14080979  0.44751611  0.36974120  1
  Rh  Rh9  1  0.14098182  0.17223825  0.95383638  1
