# generated using pymatgen
data_Li(TiS2)3
_symmetry_space_group_name_H-M   'P 1'
_cell_length_a   5.92560339
_cell_length_b   5.92454052
_cell_length_c   6.99710512
_cell_angle_alpha   65.15585327
_cell_angle_beta   65.15427399
_cell_angle_gamma   60.25928497
_symmetry_Int_Tables_number   1
_chemical_formula_structural   Li(TiS2)3
_chemical_formula_sum   'Li1 Ti3 S6'
_cell_volume   186.42813105
_cell_formula_units_Z   1
loop_
 _symmetry_equiv_pos_site_id
 _symmetry_equiv_pos_as_xyz
  1  'x, y, z'
loop_
 _atom_site_type_symbol
 _atom_site_label
 _atom_site_symmetry_multiplicity
 _atom_site_fract_x
 _atom_site_fract_y
 _atom_site_fract_z
 _atom_site_occupancy
  Li  Li0  1  0.79981655  0.11840577  0.11246452  1
  Ti  Ti1  1  0.96918714  0.28777415  0.60870349  1
  Ti  Ti2  1  0.30060542  0.62015885  0.61348581  1
  Ti  Ti3  1  0.63189936  0.95062536  0.62680995  1
  S  S4  1  0.04089410  0.02601751  0.38655025  1
  S  S5  1  0.22176488  0.87005085  0.85214049  1
  S  S6  1  0.37206441  0.36004591  0.38602054  1
  S  S7  1  0.55106199  0.20601755  0.85226542  1
  S  S8  1  0.89049697  0.53868127  0.85255986  1
  S  S9  1  0.70932090  0.69267684  0.38665968  1
