# generated using pymatgen
data_Li2Cu4S3
_symmetry_space_group_name_H-M   'P 1'
_cell_length_a   6.79508877
_cell_length_b   6.83336926
_cell_length_c   7.44323826
_cell_angle_alpha   62.92300797
_cell_angle_beta   62.78104782
_cell_angle_gamma   60.27606201
_symmetry_Int_Tables_number   1
_chemical_formula_structural   Li2Cu4S3
_chemical_formula_sum   'Li4 Cu8 S6'
_cell_volume   254.96351916
_cell_formula_units_Z   2
loop_
 _symmetry_equiv_pos_site_id
 _symmetry_equiv_pos_as_xyz
  1  'x, y, z'
loop_
 _atom_site_type_symbol
 _atom_site_label
 _atom_site_symmetry_multiplicity
 _atom_site_fract_x
 _atom_site_fract_y
 _atom_site_fract_z
 _atom_site_occupancy
  Li  Li0  1  0.10144003  0.57475752  0.10916867  1
  Li  Li1  1  0.62432986  0.01548686  0.59585631  1
  Li  Li2  1  0.19881600  0.33389395  0.79011899  1
  Li  Li3  1  0.79386985  0.18075509  0.11802364  1
  Cu  Cu4  1  0.96518326  0.41731769  0.53285974  1
  Cu  Cu5  1  0.45365471  0.91752803  0.03006953  1
  Cu  Cu6  1  0.66179305  0.58247632  0.21670474  1
  Cu  Cu7  1  0.27138314  0.77497828  0.53176564  1
  Cu  Cu8  1  0.53833997  0.64591652  0.79092610  1
  Cu  Cu9  1  0.62800604  0.39521471  0.53279102  1
  Cu  Cu10  1  0.87339240  0.00301900  0.78777003  1
  Cu  Cu11  1  0.37147382  0.14822860  0.29209247  1
  S  S12  1  0.51439047  0.27390310  0.90138036  1
  S  S13  1  0.83645856  0.62767613  0.88723618  1
  S  S14  1  0.00848543  0.12496847  0.39060220  1
  S  S15  1  0.68072718  0.77728724  0.38856378  1
  S  S16  1  0.18505663  0.94302469  0.88111120  1
  S  S17  1  0.34755933  0.44398418  0.38874379  1
