# generated using pymatgen
data_Li2FeNi3O8
_symmetry_space_group_name_H-M   'P 1'
_cell_length_a   5.75232029
_cell_length_b   5.78948498
_cell_length_c   5.75385475
_cell_angle_alpha   91.67149353
_cell_angle_beta   118.65258789
_cell_angle_gamma   119.69987488
_symmetry_Int_Tables_number   1
_chemical_formula_structural   Li2FeNi3O8
_chemical_formula_sum   'Li2 Fe1 Ni3 O8'
_cell_volume   136.83023707
_cell_formula_units_Z   1
loop_
 _symmetry_equiv_pos_site_id
 _symmetry_equiv_pos_as_xyz
  1  'x, y, z'
loop_
 _atom_site_type_symbol
 _atom_site_label
 _atom_site_symmetry_multiplicity
 _atom_site_fract_x
 _atom_site_fract_y
 _atom_site_fract_z
 _atom_site_occupancy
  Li  Li0  1  0.66786140  0.09030037  0.86889684  1
  Li  Li1  1  0.16692440  0.59015876  0.86864644  1
  Fe  Fe2  1  0.16770765  0.59007871  0.36878145  1
  Ni  Ni3  1  0.16738410  0.08946297  0.36836466  1
  Ni  Ni4  1  0.66705406  0.08925852  0.36848307  1
  Ni  Ni5  1  0.66746372  0.58997715  0.86852193  1
  O  O6  1  0.14264274  0.33064365  0.13655664  1
  O  O7  1  0.64117789  0.31191438  0.60548097  1
  O  O8  1  0.68336749  0.85634673  0.13115494  1
  O  O9  1  0.71516103  0.36857226  0.14713223  1
  O  O10  1  0.19729681  0.85062617  0.60261047  1
  O  O11  1  0.18374833  0.85090995  0.15719169  1
  O  O12  1  0.63291103  0.80874991  0.60254776  1
  O  O13  1  0.15489791  0.33349007  0.57695490  1
