# generated using pymatgen
data_Li2HoIn
_symmetry_space_group_name_H-M   'P 1'
_cell_length_a   4.97526455
_cell_length_b   4.98354673
_cell_length_c   4.97239161
_cell_angle_alpha   59.74099350
_cell_angle_beta   59.91537476
_cell_angle_gamma   60.20542526
_symmetry_Int_Tables_number   1
_chemical_formula_structural   Li2HoIn
_chemical_formula_sum   'Li2 Ho1 In1'
_cell_volume   87.08361586
_cell_formula_units_Z   1
loop_
 _symmetry_equiv_pos_site_id
 _symmetry_equiv_pos_as_xyz
  1  'x, y, z'
loop_
 _atom_site_type_symbol
 _atom_site_label
 _atom_site_symmetry_multiplicity
 _atom_site_fract_x
 _atom_site_fract_y
 _atom_site_fract_z
 _atom_site_occupancy
  Li  Li0  1  0.87347060  0.42771441  0.99599856  1
  Li  Li1  1  0.12384364  0.67780113  0.24508595  1
  Ho  Ho2  1  0.37358660  0.92809248  0.49537399  1
  In  In3  1  0.62359315  0.17797576  0.74609607  1
