# generated using pymatgen
data_Li2MnF4
_symmetry_space_group_name_H-M   'P 1'
_cell_length_a   3.37777829
_cell_length_b   5.90697765
_cell_length_c   9.54271889
_cell_angle_alpha   103.56556702
_cell_angle_beta   89.94403839
_cell_angle_gamma   107.37397003
_symmetry_Int_Tables_number   1
_chemical_formula_structural   Li2MnF4
_chemical_formula_sum   'Li4 Mn2 F8'
_cell_volume   176.15433756
_cell_formula_units_Z   2
loop_
 _symmetry_equiv_pos_site_id
 _symmetry_equiv_pos_as_xyz
  1  'x, y, z'
loop_
 _atom_site_type_symbol
 _atom_site_label
 _atom_site_symmetry_multiplicity
 _atom_site_fract_x
 _atom_site_fract_y
 _atom_site_fract_z
 _atom_site_occupancy
  Li  Li0  1  0.20443520  0.93136173  0.89600974  1
  Li  Li1  1  0.89614278  0.31876713  0.39682850  1
  Li  Li2  1  0.89542282  0.31769416  0.89701653  1
  Li  Li3  1  0.20606337  0.93634903  0.39670736  1
  Mn  Mn4  1  0.54390597  0.61470884  0.64561939  1
  Mn  Mn5  1  0.54432833  0.61552966  0.14560325  1
  F  F6  1  0.38477668  0.29130477  0.98476934  1
  F  F7  1  0.97660500  0.48589680  0.74756527  1
  F  F8  1  0.09711798  0.72914302  0.53381532  1
  F  F9  1  0.38513979  0.29064938  0.48362783  1
  F  F10  1  0.70829648  0.94252282  0.30008683  1
  F  F11  1  0.09650344  0.72948241  0.03341501  1
  F  F12  1  0.70954883  0.94469064  0.80023712  1
  F  F13  1  0.97633809  0.48219547  0.24754095  1
