# generated using pymatgen
data_Li2MgTl
_symmetry_space_group_name_H-M   'P 1'
_cell_length_a   4.87791967
_cell_length_b   4.86942101
_cell_length_c   4.85639477
_cell_angle_alpha   59.88336563
_cell_angle_beta   59.92610931
_cell_angle_gamma   60.28776550
_symmetry_Int_Tables_number   1
_chemical_formula_structural   Li2MgTl
_chemical_formula_sum   'Li2 Mg1 Tl1'
_cell_volume   81.62380802
_cell_formula_units_Z   1
loop_
 _symmetry_equiv_pos_site_id
 _symmetry_equiv_pos_as_xyz
  1  'x, y, z'
loop_
 _atom_site_type_symbol
 _atom_site_label
 _atom_site_symmetry_multiplicity
 _atom_site_fract_x
 _atom_site_fract_y
 _atom_site_fract_z
 _atom_site_occupancy
  Li  Li0  1  0.03933055  0.11882234  0.08189241  1
  Li  Li1  1  0.78921258  0.86891198  0.83211768  1
  Mg  Mg2  1  0.53912938  0.61871862  0.58261198  1
  Tl  Tl3  1  0.28964600  0.36927441  0.33208698  1
