# generated using pymatgen
data_Li2SmTl
_symmetry_space_group_name_H-M   'P 1'
_cell_length_a   4.94306278
_cell_length_b   4.92899227
_cell_length_c   4.92236233
_cell_angle_alpha   59.78392029
_cell_angle_beta   59.76298141
_cell_angle_gamma   59.92102432
_symmetry_Int_Tables_number   1
_chemical_formula_structural   Li2SmTl
_chemical_formula_sum   'Li2 Sm1 Tl1'
_cell_volume   84.46155103
_cell_formula_units_Z   1
loop_
 _symmetry_equiv_pos_site_id
 _symmetry_equiv_pos_as_xyz
  1  'x, y, z'
loop_
 _atom_site_type_symbol
 _atom_site_label
 _atom_site_symmetry_multiplicity
 _atom_site_fract_x
 _atom_site_fract_y
 _atom_site_fract_z
 _atom_site_occupancy
  Li  Li0  1  0.11503837  0.25776550  0.02125643  1
  Li  Li1  1  0.61466861  0.75774288  0.52105826  1
  Sm  Sm2  1  0.36442855  0.50741959  0.27125627  1
  Tl  Tl3  1  0.86506855  0.00750994  0.77126431  1
