# generated using pymatgen
data_Li2VF6
_symmetry_space_group_name_H-M   'P 1'
_cell_length_a   4.83518839
_cell_length_b   4.92022753
_cell_length_c   8.66786480
_cell_angle_alpha   89.77388763
_cell_angle_beta   90.02487946
_cell_angle_gamma   90.32031250
_symmetry_Int_Tables_number   1
_chemical_formula_structural   Li2VF6
_chemical_formula_sum   'Li4 V2 F12'
_cell_volume   206.20562561
_cell_formula_units_Z   2
loop_
 _symmetry_equiv_pos_site_id
 _symmetry_equiv_pos_as_xyz
  1  'x, y, z'
loop_
 _atom_site_type_symbol
 _atom_site_label
 _atom_site_symmetry_multiplicity
 _atom_site_fract_x
 _atom_site_fract_y
 _atom_site_fract_z
 _atom_site_occupancy
  Li  Li0  1  0.30920628  0.51031309  0.04179112  1
  Li  Li1  1  0.80952549  0.00949413  0.83855349  1
  Li  Li2  1  0.30918112  0.01393668  0.46397406  1
  Li  Li3  1  0.81009579  0.51329434  0.39789191  1
  V  V4  1  0.30638739  0.51451123  0.69226450  1
  V  V5  1  0.80721152  0.01420599  0.19139048  1
  F  F6  1  0.00787747  0.19836718  0.34198716  1
  F  F7  1  0.50740498  0.33505756  0.84189814  1
  F  F8  1  0.61663002  0.83556432  0.34221545  1
  F  F9  1  0.11683629  0.69816101  0.84406328  1
  F  F10  1  0.56286591  0.79934543  0.69169772  1
  F  F11  1  0.00845573  0.19831359  0.03457305  1
  F  F12  1  0.11608575  0.69582492  0.53538513  1
  F  F13  1  0.61648220  0.83270770  0.03409452  1
  F  F14  1  0.05441289  0.23230371  0.69120198  1
  F  F15  1  0.50742888  0.33662817  0.53434503  1
  F  F16  1  0.55675298  0.29825708  0.19131377  1
  F  F17  1  0.05761789  0.73037779  0.19182557  1
