# generated using pymatgen
data_Li2VF4
_symmetry_space_group_name_H-M   'P 1'
_cell_length_a   4.92032528
_cell_length_b   5.24081182
_cell_length_c   5.81045055
_cell_angle_alpha   89.88796997
_cell_angle_beta   89.94528961
_cell_angle_gamma   91.49131012
_symmetry_Int_Tables_number   1
_chemical_formula_structural   Li2VF4
_chemical_formula_sum   'Li4 V2 F8'
_cell_volume   149.78006445
_cell_formula_units_Z   2
loop_
 _symmetry_equiv_pos_site_id
 _symmetry_equiv_pos_as_xyz
  1  'x, y, z'
loop_
 _atom_site_type_symbol
 _atom_site_label
 _atom_site_symmetry_multiplicity
 _atom_site_fract_x
 _atom_site_fract_y
 _atom_site_fract_z
 _atom_site_occupancy
  Li  Li0  1  0.10431762  0.38920105  0.13725440  1
  Li  Li1  1  0.60441732  0.38868061  0.63744181  1
  Li  Li2  1  0.60440797  0.38984779  0.18644960  1
  Li  Li3  1  0.10429230  0.38922012  0.68588984  1
  V  V4  1  0.60457838  0.88974440  0.90821624  1
  V  V5  1  0.10532507  0.88990200  0.40810186  1
  F  F6  1  0.85358524  0.06693378  0.65468997  1
  F  F7  1  0.87513620  0.54851300  0.41057605  1
  F  F8  1  0.85422260  0.06811183  0.15684707  1
  F  F9  1  0.37431708  0.22433200  0.91057479  1
  F  F10  1  0.83283120  0.54998356  0.91105032  1
  F  F11  1  0.35516396  0.70958537  0.65683997  1
  F  F12  1  0.33275414  0.23440717  0.41124317  1
  F  F13  1  0.35443518  0.71247250  0.15472685  1
