# generated using pymatgen
data_Li2YbPb
_symmetry_space_group_name_H-M   'P 1'
_cell_length_a   4.98135185
_cell_length_b   4.98390532
_cell_length_c   4.96120548
_cell_angle_alpha   59.71574020
_cell_angle_beta   59.71839142
_cell_angle_gamma   59.95050049
_symmetry_Int_Tables_number   1
_chemical_formula_structural   Li2YbPb
_chemical_formula_sum   'Li2 Yb1 Pb1'
_cell_volume   86.68766650
_cell_formula_units_Z   1
loop_
 _symmetry_equiv_pos_site_id
 _symmetry_equiv_pos_as_xyz
  1  'x, y, z'
loop_
 _atom_site_type_symbol
 _atom_site_label
 _atom_site_symmetry_multiplicity
 _atom_site_fract_x
 _atom_site_fract_y
 _atom_site_fract_z
 _atom_site_occupancy
  Li  Li0  1  0.91155916  0.16073617  0.87000865  1
  Li  Li1  1  0.41118571  0.66017008  0.37023821  1
  Yb  Yb2  1  0.66124517  0.90987736  0.62101984  1
  Pb  Pb3  1  0.16107211  0.41083229  0.12040810  1
