# generated using pymatgen
data_Li3Pt
_symmetry_space_group_name_H-M   'P 1'
_cell_length_a   4.31165838
_cell_length_b   4.29923105
_cell_length_c   4.29524517
_cell_angle_alpha   59.41616821
_cell_angle_beta   59.78260803
_cell_angle_gamma   60.20261002
_symmetry_Int_Tables_number   1
_chemical_formula_structural   Li3Pt
_chemical_formula_sum   'Li3 Pt1'
_cell_volume   56.03961755
_cell_formula_units_Z   1
loop_
 _symmetry_equiv_pos_site_id
 _symmetry_equiv_pos_as_xyz
  1  'x, y, z'
loop_
 _atom_site_type_symbol
 _atom_site_label
 _atom_site_symmetry_multiplicity
 _atom_site_fract_x
 _atom_site_fract_y
 _atom_site_fract_z
 _atom_site_occupancy
  Li  Li0  1  0.99986714  0.85443789  0.75526100  1
  Li  Li1  1  0.49924055  0.35452035  0.25535023  1
  Li  Li2  1  0.74937826  0.60440511  0.50515932  1
  Pt  Pt3  1  0.24940354  0.10423326  0.00596740  1
