# generated using pymatgen
data_Li3Tl2Cd
_symmetry_space_group_name_H-M   'P 1'
_cell_length_a   5.28113604
_cell_length_b   5.40901470
_cell_length_c   5.92431116
_cell_angle_alpha   64.49556732
_cell_angle_beta   63.57457733
_cell_angle_gamma   60.70578384
_symmetry_Int_Tables_number   1
_chemical_formula_structural   Li3Tl2Cd
_chemical_formula_sum   'Li3 Tl2 Cd1'
_cell_volume   127.16735260
_cell_formula_units_Z   1
loop_
 _symmetry_equiv_pos_site_id
 _symmetry_equiv_pos_as_xyz
  1  'x, y, z'
loop_
 _atom_site_type_symbol
 _atom_site_label
 _atom_site_symmetry_multiplicity
 _atom_site_fract_x
 _atom_site_fract_y
 _atom_site_fract_z
 _atom_site_occupancy
  Li  Li0  1  0.83997917  0.04640432  0.31325591  1
  Li  Li1  1  0.16530617  0.37633741  0.33863926  1
  Li  Li2  1  0.83984095  0.54660749  0.81568289  1
  Tl  Tl3  1  0.50254869  0.21438433  0.80900991  1
  Tl  Tl4  1  0.50276732  0.71390802  0.30812681  1
  Cd  Cd5  1  0.16712643  0.87850648  0.82673556  1
