# generated using pymatgen
data_Li5SbS
_symmetry_space_group_name_H-M   'P 1'
_cell_length_a   4.19007540
_cell_length_b   4.18915939
_cell_length_c   6.32511568
_cell_angle_alpha   89.80816650
_cell_angle_beta   90.08578491
_cell_angle_gamma   90.07567596
_symmetry_Int_Tables_number   1
_chemical_formula_structural   Li5SbS
_chemical_formula_sum   'Li5 Sb1 S1'
_cell_volume   111.02324041
_cell_formula_units_Z   1
loop_
 _symmetry_equiv_pos_site_id
 _symmetry_equiv_pos_as_xyz
  1  'x, y, z'
loop_
 _atom_site_type_symbol
 _atom_site_label
 _atom_site_symmetry_multiplicity
 _atom_site_fract_x
 _atom_site_fract_y
 _atom_site_fract_z
 _atom_site_occupancy
  Li  Li0  1  0.39998657  0.53193498  0.51542395  1
  Li  Li1  1  0.89989507  0.03216177  0.91342705  1
  Li  Li2  1  0.90034652  0.03203920  0.51518995  1
  Li  Li3  1  0.89946729  0.53209502  0.21403027  1
  Li  Li4  1  0.39952219  0.53175479  0.91352952  1
  Sb  Sb5  1  0.39977711  0.03178879  0.21418674  1
  S  S6  1  0.90031600  0.53238726  0.71396601  1
