# generated using pymatgen
data_Li6Br3N
_symmetry_space_group_name_H-M   'P 1'
_cell_length_a   5.71073246
_cell_length_b   5.73575354
_cell_length_c   5.75737667
_cell_angle_alpha   89.81639862
_cell_angle_beta   89.71277618
_cell_angle_gamma   90.11103058
_symmetry_Int_Tables_number   1
_chemical_formula_structural   Li6Br3N
_chemical_formula_sum   'Li6 Br3 N1'
_cell_volume   188.58121260
_cell_formula_units_Z   1
loop_
 _symmetry_equiv_pos_site_id
 _symmetry_equiv_pos_as_xyz
  1  'x, y, z'
loop_
 _atom_site_type_symbol
 _atom_site_label
 _atom_site_symmetry_multiplicity
 _atom_site_fract_x
 _atom_site_fract_y
 _atom_site_fract_z
 _atom_site_occupancy
  Li  Li0  1  0.12852609  0.05125174  0.91203660  1
  Li  Li1  1  0.74275053  0.43542728  0.32060122  1
  Li  Li2  1  0.76968777  0.38520306  0.91238624  1
  Li  Li3  1  0.17520459  0.43761998  0.31995821  1
  Li  Li4  1  0.17575179  0.99466562  0.32101229  1
  Li  Li5  1  0.74192923  0.99751395  0.31946331  1
  Br  Br6  1  0.95560402  0.72351801  0.61319458  1
  Br  Br7  1  0.45750737  0.22564550  0.61246979  1
  Br  Br8  1  0.45697844  0.72394353  0.10538308  1
  N  N9  1  0.95761013  0.22370215  0.14994390  1
