# generated using pymatgen
data_Li6Mn3CoO10
_symmetry_space_group_name_H-M   'P 1'
_cell_length_a   2.85385585
_cell_length_b   6.63717031
_cell_length_c   10.66199398
_cell_angle_alpha   75.79737854
_cell_angle_beta   84.83179474
_cell_angle_gamma   78.70869446
_symmetry_Int_Tables_number   1
_chemical_formula_structural   Li6Mn3CoO10
_chemical_formula_sum   'Li6 Mn3 Co1 O10'
_cell_volume   191.80424125
_cell_formula_units_Z   1
loop_
 _symmetry_equiv_pos_site_id
 _symmetry_equiv_pos_as_xyz
  1  'x, y, z'
loop_
 _atom_site_type_symbol
 _atom_site_label
 _atom_site_symmetry_multiplicity
 _atom_site_fract_x
 _atom_site_fract_y
 _atom_site_fract_z
 _atom_site_occupancy
  Li  Li0  1  0.36182478  0.19626041  0.22356798  1
  Li  Li1  1  0.16019310  0.53039652  0.28749681  1
  Li  Li2  1  0.84624547  0.40679669  0.05685024  1
  Li  Li3  1  0.53640300  0.30206379  0.78662211  1
  Li  Li4  1  0.07134334  0.09612913  0.91493720  1
  Li  Li5  1  0.90786421  0.98343891  0.33408511  1
  Mn  Mn6  1  0.46256256  0.71311873  0.50119674  1
  Mn  Mn7  1  0.30535671  0.71558708  0.81607473  1
  Mn  Mn8  1  0.60343766  0.82840258  0.09754548  1
  Co  Co9  1  0.71165162  0.20185398  0.54615450  1
  O  O10  1  0.21352765  0.64608479  0.08782917  1
  O  O11  1  0.48818099  0.13144094  0.05238919  1
  O  O12  1  0.91175395  0.49721563  0.85098773  1
  O  O13  1  0.16569701  0.16297430  0.68920934  1
  O  O14  1  0.53515720  0.79481620  0.28781995  1
  O  O15  1  0.87831980  0.78368545  0.62421012  1
  O  O16  1  0.10150377  0.48979747  0.48415703  1
  O  O17  1  0.78146446  0.33333132  0.25104603  1
  O  O18  1  0.68520802  0.89133173  0.89286035  1
  O  O19  1  0.32023004  0.06159331  0.44985661  1
