# generated using pymatgen
data_Li8IrO6
_symmetry_space_group_name_H-M   'P 1'
_cell_length_a   5.42301941
_cell_length_b   5.45639610
_cell_length_c   5.93778467
_cell_angle_alpha   62.66500473
_cell_angle_beta   62.79212952
_cell_angle_gamma   59.66231537
_symmetry_Int_Tables_number   1
_chemical_formula_structural   Li8IrO6
_chemical_formula_sum   'Li8 Ir1 O6'
_cell_volume   128.76086202
_cell_formula_units_Z   1
loop_
 _symmetry_equiv_pos_site_id
 _symmetry_equiv_pos_as_xyz
  1  'x, y, z'
loop_
 _atom_site_type_symbol
 _atom_site_label
 _atom_site_symmetry_multiplicity
 _atom_site_fract_x
 _atom_site_fract_y
 _atom_site_fract_z
 _atom_site_occupancy
  Li  Li0  1  0.27200454  0.24043994  0.70385903  1
  Li  Li1  1  0.83785784  0.10791947  0.03354564  1
  Li  Li2  1  0.02395939  0.66392380  0.40675193  1
  Li  Li3  1  0.40058029  0.99338555  0.40736786  1
  Li  Li4  1  0.60437417  0.53533399  0.70394391  1
  Li  Li5  1  0.72860557  0.28803170  0.40769118  1
  Li  Li6  1  0.16406833  0.42621151  0.07023220  1
  Li  Li7  1  0.97527897  0.87177831  0.70357490  1
  Ir  Ir8  1  0.50070399  0.76887578  0.05158982  1
  O  O9  1  0.88852829  0.53540516  0.81543624  1
  O  O10  1  0.73755115  0.68104672  0.28950068  1
  O  O11  1  0.26508346  0.85744244  0.81192577  1
  O  O12  1  0.11035221  0.00830357  0.29059663  1
  O  O13  1  0.41052347  0.38364825  0.29100558  1
  O  O14  1  0.58751857  0.15537556  0.81648165  1
