# generated using pymatgen
data_LiAl2Os
_symmetry_space_group_name_H-M   'P 1'
_cell_length_a   4.28083420
_cell_length_b   4.31228876
_cell_length_c   4.27733898
_cell_angle_alpha   59.90100098
_cell_angle_beta   59.95565414
_cell_angle_gamma   60.11627579
_symmetry_Int_Tables_number   1
_chemical_formula_structural   LiAl2Os
_chemical_formula_sum   'Li1 Al2 Os1'
_cell_volume   55.82165868
_cell_formula_units_Z   1
loop_
 _symmetry_equiv_pos_site_id
 _symmetry_equiv_pos_as_xyz
  1  'x, y, z'
loop_
 _atom_site_type_symbol
 _atom_site_label
 _atom_site_symmetry_multiplicity
 _atom_site_fract_x
 _atom_site_fract_y
 _atom_site_fract_z
 _atom_site_occupancy
  Li  Li0  1  0.51178378  0.71636790  0.47661734  1
  Al  Al1  1  0.26109189  0.46693990  0.22616951  1
  Al  Al2  1  0.76140654  0.96671724  0.72624528  1
  Os  Os3  1  0.01145105  0.21684581  0.97627676  1
