# generated using pymatgen
data_LiCa3
_symmetry_space_group_name_H-M   'P 1'
_cell_length_a   5.26868773
_cell_length_b   5.25595284
_cell_length_c   5.28850603
_cell_angle_alpha   89.74309540
_cell_angle_beta   89.65502167
_cell_angle_gamma   89.87987518
_symmetry_Int_Tables_number   1
_chemical_formula_structural   LiCa3
_chemical_formula_sum   'Li1 Ca3'
_cell_volume   146.44473215
_cell_formula_units_Z   1
loop_
 _symmetry_equiv_pos_site_id
 _symmetry_equiv_pos_as_xyz
  1  'x, y, z'
loop_
 _atom_site_type_symbol
 _atom_site_label
 _atom_site_symmetry_multiplicity
 _atom_site_fract_x
 _atom_site_fract_y
 _atom_site_fract_z
 _atom_site_occupancy
  Li  Li0  1  0.50073898  0.26185128  0.71654779  1
  Ca  Ca1  1  0.50118375  0.76172835  0.21647164  1
  Ca  Ca2  1  0.00091581  0.26144204  0.21640381  1
  Ca  Ca3  1  0.00117040  0.76131296  0.71653402  1
