# generated using pymatgen
data_LiCeHg2
_symmetry_space_group_name_H-M   'P 1'
_cell_length_a   5.19797277
_cell_length_b   5.20899820
_cell_length_c   5.17171860
_cell_angle_alpha   59.86592484
_cell_angle_beta   59.93038940
_cell_angle_gamma   60.06492615
_symmetry_Int_Tables_number   1
_chemical_formula_structural   LiCeHg2
_chemical_formula_sum   'Li1 Ce1 Hg2'
_cell_volume   98.91213074
_cell_formula_units_Z   1
loop_
 _symmetry_equiv_pos_site_id
 _symmetry_equiv_pos_as_xyz
  1  'x, y, z'
loop_
 _atom_site_type_symbol
 _atom_site_label
 _atom_site_symmetry_multiplicity
 _atom_site_fract_x
 _atom_site_fract_y
 _atom_site_fract_z
 _atom_site_occupancy
  Li  Li0  1  0.94236988  0.43809414  0.14705423  1
  Ce  Ce1  1  0.44224671  0.93803418  0.64668667  1
  Hg  Hg2  1  0.19237860  0.68828589  0.39670265  1
  Hg  Hg3  1  0.69253933  0.18828163  0.89703989  1
