# generated using pymatgen
data_LiCo(SiO3)2
_symmetry_space_group_name_H-M   'P 1'
_cell_length_a   5.02009678
_cell_length_b   6.71358681
_cell_length_c   6.73514748
_cell_angle_alpha   83.44606018
_cell_angle_beta   78.00453949
_cell_angle_gamma   78.65440369
_symmetry_Int_Tables_number   1
_chemical_formula_structural   LiCo(SiO3)2
_chemical_formula_sum   'Li2 Co2 Si4 O12'
_cell_volume   217.06218493
_cell_formula_units_Z   2
loop_
 _symmetry_equiv_pos_site_id
 _symmetry_equiv_pos_as_xyz
  1  'x, y, z'
loop_
 _atom_site_type_symbol
 _atom_site_label
 _atom_site_symmetry_multiplicity
 _atom_site_fract_x
 _atom_site_fract_y
 _atom_site_fract_z
 _atom_site_occupancy
  Li  Li0  1  0.21240798  0.76589274  0.73658884  1
  Li  Li1  1  0.21173115  0.38269842  0.11747717  1
  Co  Co2  1  0.71178430  0.26705194  0.23537344  1
  Co  Co3  1  0.71156502  0.89039129  0.61465538  1
  Si  Si4  1  0.21331444  0.25916797  0.60221416  1
  Si  Si5  1  0.23958890  0.91356426  0.25486529  1
  Si  Si6  1  0.69526470  0.76249129  0.10667944  1
  Si  Si7  1  0.62562788  0.40548363  0.74738383  1
  O  O8  1  0.36624667  0.33557370  0.37885195  1
  O  O9  1  0.84546238  0.54909670  0.19526090  1
  O  O10  1  0.06909400  0.12395380  0.16831858  1
  O  O11  1  0.87527645  0.24612263  0.59369409  1
  O  O12  1  0.62581795  0.31445184  0.96885014  1
  O  O13  1  0.37482625  0.04756283  0.68323362  1
  O  O14  1  0.60515708  0.63853544  0.65275449  1
  O  O15  1  0.07209014  0.83037287  0.46494040  1
  O  O16  1  0.84624439  0.84639496  0.88654166  1
  O  O17  1  0.57458991  0.94467753  0.27665561  1
  O  O18  1  0.23929109  0.41852063  0.76247627  1
  O  O19  1  0.38186204  0.74986923  0.09049664  1
