# generated using pymatgen
data_LiCo3NiO8
_symmetry_space_group_name_H-M   'P 1'
_cell_length_a   5.54927349
_cell_length_b   5.53685474
_cell_length_c   5.59026384
_cell_angle_alpha   61.17461777
_cell_angle_beta   61.17826462
_cell_angle_gamma   60.39102173
_symmetry_Int_Tables_number   1
_chemical_formula_structural   LiCo3NiO8
_chemical_formula_sum   'Li1 Co3 Ni1 O8'
_cell_volume   123.94396327
_cell_formula_units_Z   1
loop_
 _symmetry_equiv_pos_site_id
 _symmetry_equiv_pos_as_xyz
  1  'x, y, z'
loop_
 _atom_site_type_symbol
 _atom_site_label
 _atom_site_symmetry_multiplicity
 _atom_site_fract_x
 _atom_site_fract_y
 _atom_site_fract_z
 _atom_site_occupancy
  Li  Li0  1  0.00896859  0.53255695  0.33770275  1
  Co  Co1  1  0.00895013  0.03207605  0.83804762  1
  Co  Co2  1  0.50936043  0.53204709  0.83785248  1
  Co  Co3  1  0.00869765  0.53183001  0.83757585  1
  Ni  Ni4  1  0.50877762  0.03204732  0.33758473  1
  O  O5  1  0.75963527  0.28141892  0.61696845  1
  O  O6  1  0.75309241  0.75649792  0.61147791  1
  O  O7  1  0.25183100  0.77862203  0.61403513  1
  O  O8  1  0.76588452  0.28882259  0.06010693  1
  O  O9  1  0.26200375  0.78116786  0.04838223  1
  O  O10  1  0.26539645  0.31149447  0.06297244  1
  O  O11  1  0.22909220  0.27811462  0.61399579  1
  O  O12  1  0.78409714  0.79339951  0.06462242  1
