# generated using pymatgen
data_LiCrPO4
_symmetry_space_group_name_H-M   'P 1'
_cell_length_a   4.92193460
_cell_length_b   5.00734329
_cell_length_c   7.16671276
_cell_angle_alpha   90.09040833
_cell_angle_beta   89.97241974
_cell_angle_gamma   90.02052307
_symmetry_Int_Tables_number   1
_chemical_formula_structural   LiCrPO4
_chemical_formula_sum   'Li2 Cr2 P2 O8'
_cell_volume   176.62923402
_cell_formula_units_Z   2
loop_
 _symmetry_equiv_pos_site_id
 _symmetry_equiv_pos_as_xyz
  1  'x, y, z'
loop_
 _atom_site_type_symbol
 _atom_site_label
 _atom_site_symmetry_multiplicity
 _atom_site_fract_x
 _atom_site_fract_y
 _atom_site_fract_z
 _atom_site_occupancy
  Li  Li0  1  0.48350269  0.71568465  0.77673471  1
  Li  Li1  1  0.98293245  0.21739924  0.27554959  1
  Cr  Cr2  1  0.48209709  0.71669495  0.27418268  1
  Cr  Cr3  1  0.98292768  0.21661931  0.77421874  1
  P  P4  1  0.48376366  0.21663435  0.02743755  1
  P  P5  1  0.98354816  0.71663249  0.52761382  1
  O  O6  1  0.16043779  0.89240950  0.65807801  1
  O  O7  1  0.30614197  0.04179273  0.15751411  1
  O  O8  1  0.66543567  0.04042639  0.90351707  1
  O  O9  1  0.80266958  0.89027172  0.40444887  1
  O  O10  1  0.66006798  0.39035308  0.15854989  1
  O  O11  1  0.16599546  0.54143453  0.40420109  1
  O  O12  1  0.30260774  0.38921425  0.89861017  1
  O  O13  1  0.80535144  0.54260516  0.65795577  1
