# generated using pymatgen
data_LiDyHg2
_symmetry_space_group_name_H-M   'P 1'
_cell_length_a   5.05095911
_cell_length_b   5.05824518
_cell_length_c   5.04115438
_cell_angle_alpha   59.58745575
_cell_angle_beta   59.79012680
_cell_angle_gamma   59.86593628
_symmetry_Int_Tables_number   1
_chemical_formula_structural   LiDyHg2
_chemical_formula_sum   'Li1 Dy1 Hg2'
_cell_volume   90.55016487
_cell_formula_units_Z   1
loop_
 _symmetry_equiv_pos_site_id
 _symmetry_equiv_pos_as_xyz
  1  'x, y, z'
loop_
 _atom_site_type_symbol
 _atom_site_label
 _atom_site_symmetry_multiplicity
 _atom_site_fract_x
 _atom_site_fract_y
 _atom_site_fract_z
 _atom_site_occupancy
  Li  Li0  1  0.33108613  0.61567956  0.52726024  1
  Dy  Dy1  1  0.83124363  0.11568774  0.02748692  1
  Hg  Hg2  1  0.58154094  0.86573279  0.77732068  1
  Hg  Hg3  1  0.08106450  0.36571193  0.27745938  1
