# generated using pymatgen
data_LiEuGe2
_symmetry_space_group_name_H-M   'P 1'
_cell_length_a   4.55864716
_cell_length_b   8.64495182
_cell_length_c   9.47044086
_cell_angle_alpha   80.34006500
_cell_angle_beta   75.50216675
_cell_angle_gamma   73.95990753
_symmetry_Int_Tables_number   1
_chemical_formula_structural   LiEuGe2
_chemical_formula_sum   'Li4 Eu4 Ge8'
_cell_volume   345.31494630
_cell_formula_units_Z   4
loop_
 _symmetry_equiv_pos_site_id
 _symmetry_equiv_pos_as_xyz
  1  'x, y, z'
loop_
 _atom_site_type_symbol
 _atom_site_label
 _atom_site_symmetry_multiplicity
 _atom_site_fract_x
 _atom_site_fract_y
 _atom_site_fract_z
 _atom_site_occupancy
  Li  Li0  1  0.20949902  0.99422532  0.79757220  1
  Li  Li1  1  0.81422967  0.80772501  0.76722378  1
  Li  Li2  1  0.16152401  0.56389654  0.30955744  1
  Li  Li3  1  0.25771132  0.22503397  0.47266036  1
  Eu  Eu4  1  0.46989226  0.76007533  0.50562543  1
  Eu  Eu5  1  0.84521514  0.49732167  0.02473569  1
  Eu  Eu6  1  0.58394980  0.27593830  0.76380110  1
  Eu  Eu7  1  0.97292143  0.04783905  0.21693701  1
  Ge  Ge8  1  0.04114183  0.51756436  0.63697916  1
  Ge  Ge9  1  0.81281424  0.04555861  0.54086739  1
  Ge  Ge10  1  0.39773706  0.62921101  0.80147123  1
  Ge  Ge11  1  0.61089104  0.97713172  0.00023732  1
  Ge  Ge12  1  0.62233722  0.76103109  0.20714656  1
  Ge  Ge13  1  0.40021971  0.27279863  0.14783035  1
  Ge  Ge14  1  0.21137397  0.76598018  0.02882076  1
  Ge  Ge15  1  0.71508121  0.39221445  0.39124718  1
