# generated using pymatgen
data_LiFe2F5
_symmetry_space_group_name_H-M   'P 1'
_cell_length_a   5.21973562
_cell_length_b   5.35462236
_cell_length_c   7.31976986
_cell_angle_alpha   101.39538574
_cell_angle_beta   95.06993866
_cell_angle_gamma   95.29112244
_symmetry_Int_Tables_number   1
_chemical_formula_structural   LiFe2F5
_chemical_formula_sum   'Li2 Fe4 F10'
_cell_volume   198.50369467
_cell_formula_units_Z   2
loop_
 _symmetry_equiv_pos_site_id
 _symmetry_equiv_pos_as_xyz
  1  'x, y, z'
loop_
 _atom_site_type_symbol
 _atom_site_label
 _atom_site_symmetry_multiplicity
 _atom_site_fract_x
 _atom_site_fract_y
 _atom_site_fract_z
 _atom_site_occupancy
  Li  Li0  1  0.34425646  0.77239043  0.79544663  1
  Li  Li1  1  0.90079808  0.86352736  0.09611861  1
  Fe  Fe2  1  0.85286188  0.26288965  0.79885060  1
  Fe  Fe3  1  0.76681775  0.66372657  0.46928814  1
  Fe  Fe4  1  0.28338379  0.17111087  0.50934327  1
  Fe  Fe5  1  0.39499241  0.34956133  0.05294750  1
  F  F6  1  0.56288952  0.34659806  0.38214821  1
  F  F7  1  0.55953705  0.47993946  0.76995784  1
  F  F8  1  0.10454209  0.57699019  0.96192294  1
  F  F9  1  0.63417989  0.66751057  0.17562707  1
  F  F10  1  0.14788891  0.06160634  0.77067828  1
  F  F11  1  0.13615394  0.18088768  0.17792673  1
  F  F12  1  0.60420650  0.96201098  0.59353769  1
  F  F13  1  0.63889813  0.07154425  0.96430689  1
  F  F14  1  0.05889708  0.46266580  0.59328032  1
  F  F15  1  0.06155887  0.84728211  0.38459188  1
