# generated using pymatgen
data_LiGaRh2
_symmetry_space_group_name_H-M   'P 1'
_cell_length_a   4.20355940
_cell_length_b   4.20000410
_cell_length_c   4.20927000
_cell_angle_alpha   59.94535828
_cell_angle_beta   60.08338547
_cell_angle_gamma   60.04233170
_symmetry_Int_Tables_number   1
_chemical_formula_structural   LiGaRh2
_chemical_formula_sum   'Li1 Ga1 Rh2'
_cell_volume   52.57636379
_cell_formula_units_Z   1
loop_
 _symmetry_equiv_pos_site_id
 _symmetry_equiv_pos_as_xyz
  1  'x, y, z'
loop_
 _atom_site_type_symbol
 _atom_site_label
 _atom_site_symmetry_multiplicity
 _atom_site_fract_x
 _atom_site_fract_y
 _atom_site_fract_z
 _atom_site_occupancy
  Li  Li0  1  0.63193697  0.69829476  0.20348918  1
  Ga  Ga1  1  0.13112423  0.19834928  0.70354420  1
  Rh  Rh2  1  0.88129038  0.94868064  0.45362037  1
  Rh  Rh3  1  0.38161746  0.44856957  0.95341480  1
