# generated using pymatgen
data_LiHfSe2
_symmetry_space_group_name_H-M   'P 1'
_cell_length_a   3.88963628
_cell_length_b   3.89361024
_cell_length_c   6.85330153
_cell_angle_alpha   89.96143341
_cell_angle_beta   89.93927002
_cell_angle_gamma   120.49108887
_symmetry_Int_Tables_number   1
_chemical_formula_structural   LiHfSe2
_chemical_formula_sum   'Li1 Hf1 Se2'
_cell_volume   89.43773726
_cell_formula_units_Z   1
loop_
 _symmetry_equiv_pos_site_id
 _symmetry_equiv_pos_as_xyz
  1  'x, y, z'
loop_
 _atom_site_type_symbol
 _atom_site_label
 _atom_site_symmetry_multiplicity
 _atom_site_fract_x
 _atom_site_fract_y
 _atom_site_fract_z
 _atom_site_occupancy
  Li  Li0  1  0.11430452  0.46772209  0.50472844  1
  Hf  Hf1  1  0.44787925  0.13402249  0.09820005  1
  Se  Se2  1  0.78209072  0.80022693  0.33015850  1
  Se  Se3  1  0.11496444  0.46816468  0.87836063  1
