# generated using pymatgen
data_LiLaNb4O12
_symmetry_space_group_name_H-M   'P 1'
_cell_length_a   5.30851412
_cell_length_b   6.79629517
_cell_length_c   7.73822165
_cell_angle_alpha   99.42183685
_cell_angle_beta   93.27569580
_cell_angle_gamma   108.55175781
_symmetry_Int_Tables_number   1
_chemical_formula_structural   LiLaNb4O12
_chemical_formula_sum   'Li1 La1 Nb4 O12'
_cell_volume   259.31691720
_cell_formula_units_Z   1
loop_
 _symmetry_equiv_pos_site_id
 _symmetry_equiv_pos_as_xyz
  1  'x, y, z'
loop_
 _atom_site_type_symbol
 _atom_site_label
 _atom_site_symmetry_multiplicity
 _atom_site_fract_x
 _atom_site_fract_y
 _atom_site_fract_z
 _atom_site_occupancy
  Li  Li0  1  0.95259029  0.55358136  0.84074062  1
  La  La1  1  0.12616649  0.92919803  0.20111927  1
  Nb  Nb2  1  0.39043024  0.47907060  0.17193268  1
  Nb  Nb3  1  0.78712767  0.28441778  0.47244492  1
  Nb  Nb4  1  0.16615070  0.07814766  0.72957855  1
  Nb  Nb5  1  0.57321227  0.80795580  0.63008845  1
  O  O6  1  0.04294723  0.27883500  0.28672513  1
  O  O7  1  0.28485146  0.80880499  0.73491436  1
  O  O8  1  0.69226879  0.54972184  0.61413693  1
  O  O9  1  0.71521926  0.63520211  0.11723816  1
  O  O10  1  0.04958807  0.32534704  0.67259598  1
  O  O11  1  0.36341330  0.71468335  0.37211347  1
  O  O12  1  0.46178266  0.10965647  0.58146954  1
  O  O13  1  0.30726579  0.19856170  0.96972877  1
  O  O14  1  0.85795999  0.93947232  0.84610522  1
  O  O15  1  0.19963069  0.59734511  0.04406432  1
  O  O16  1  0.53121573  0.27642250  0.28702077  1
  O  O17  1  0.88917899  0.96056986  0.49369729  1
