# generated using pymatgen
data_LiLu2Au
_symmetry_space_group_name_H-M   'P 1'
_cell_length_a   4.98508406
_cell_length_b   4.98957491
_cell_length_c   4.98386431
_cell_angle_alpha   59.80324936
_cell_angle_beta   59.88135147
_cell_angle_gamma   60.00707626
_symmetry_Int_Tables_number   1
_chemical_formula_structural   LiLu2Au
_chemical_formula_sum   'Li1 Lu2 Au1'
_cell_volume   87.45217801
_cell_formula_units_Z   1
loop_
 _symmetry_equiv_pos_site_id
 _symmetry_equiv_pos_as_xyz
  1  'x, y, z'
loop_
 _atom_site_type_symbol
 _atom_site_label
 _atom_site_symmetry_multiplicity
 _atom_site_fract_x
 _atom_site_fract_y
 _atom_site_fract_z
 _atom_site_occupancy
  Li  Li0  1  0.10125644  0.50371921  0.38007754  1
  Lu  Lu1  1  0.85106283  0.25379243  0.12964287  1
  Lu  Lu2  1  0.35130745  0.75377375  0.63004768  1
  Au  Au3  1  0.60140705  0.00380170  0.88021308  1
