# generated using pymatgen
data_LiMg2
_symmetry_space_group_name_H-M   'P 1'
_cell_length_a   3.07775402
_cell_length_b   3.11534357
_cell_length_c   7.30531406
_cell_angle_alpha   90.13751984
_cell_angle_beta   90.04678345
_cell_angle_gamma   118.95164490
_symmetry_Int_Tables_number   1
_chemical_formula_structural   LiMg2
_chemical_formula_sum   'Li1 Mg2'
_cell_volume   61.29126881
_cell_formula_units_Z   1
loop_
 _symmetry_equiv_pos_site_id
 _symmetry_equiv_pos_as_xyz
  1  'x, y, z'
loop_
 _atom_site_type_symbol
 _atom_site_label
 _atom_site_symmetry_multiplicity
 _atom_site_fract_x
 _atom_site_fract_y
 _atom_site_fract_z
 _atom_site_occupancy
  Li  Li0  1  0.95104748  0.35200855  0.37207943  1
  Mg  Mg1  1  0.61791909  0.68624634  0.04030399  1
  Mg  Mg2  1  0.28468302  0.01851148  0.70267206  1
