# generated using pymatgen
data_LiMg
_symmetry_space_group_name_H-M   'P 1'
_cell_length_a   3.19527960
_cell_length_b   5.99253845
_cell_length_c   7.34715652
_cell_angle_alpha   105.98946381
_cell_angle_beta   89.94706726
_cell_angle_gamma   106.42097473
_symmetry_Int_Tables_number   1
_chemical_formula_structural   LiMg
_chemical_formula_sum   'Li3 Mg3'
_cell_volume   129.27069439
_cell_formula_units_Z   3
loop_
 _symmetry_equiv_pos_site_id
 _symmetry_equiv_pos_as_xyz
  1  'x, y, z'
loop_
 _atom_site_type_symbol
 _atom_site_label
 _atom_site_symmetry_multiplicity
 _atom_site_fract_x
 _atom_site_fract_y
 _atom_site_fract_z
 _atom_site_occupancy
  Li  Li0  1  0.33395001  0.72358668  0.89191478  1
  Li  Li1  1  0.66743940  0.39079988  0.55745602  1
  Li  Li2  1  0.00029529  0.05677731  0.22394125  1
  Mg  Mg3  1  0.38788331  0.83246934  0.49517789  1
  Mg  Mg4  1  0.72063172  0.49840668  0.16309310  1
  Mg  Mg5  1  0.05490944  0.16684322  0.82947779  1
