# generated using pymatgen
data_LiMg
_symmetry_space_group_name_H-M   'P 1'
_cell_length_a   2.99935675
_cell_length_b   3.00113821
_cell_length_c   4.94247293
_cell_angle_alpha   89.84125519
_cell_angle_beta   89.78215027
_cell_angle_gamma   112.94423676
_symmetry_Int_Tables_number   1
_chemical_formula_structural   LiMg
_chemical_formula_sum   'Li1 Mg1'
_cell_volume   40.96905117
_cell_formula_units_Z   1
loop_
 _symmetry_equiv_pos_site_id
 _symmetry_equiv_pos_as_xyz
  1  'x, y, z'
loop_
 _atom_site_type_symbol
 _atom_site_label
 _atom_site_symmetry_multiplicity
 _atom_site_fract_x
 _atom_site_fract_y
 _atom_site_fract_z
 _atom_site_occupancy
  Li  Li0  1  0.40707976  0.03536957  0.60546201  1
  Mg  Mg1  1  0.90694189  0.53442460  0.10570250  1
