# generated using pymatgen
data_LiMg
_symmetry_space_group_name_H-M   'P 1'
_cell_length_a   3.38189101
_cell_length_b   3.39576530
_cell_length_c   3.53440404
_cell_angle_alpha   88.93844604
_cell_angle_beta   89.68447876
_cell_angle_gamma   90.12968445
_symmetry_Int_Tables_number   1
_chemical_formula_structural   LiMg
_chemical_formula_sum   'Li1 Mg1'
_cell_volume   40.58178293
_cell_formula_units_Z   1
loop_
 _symmetry_equiv_pos_site_id
 _symmetry_equiv_pos_as_xyz
  1  'x, y, z'
loop_
 _atom_site_type_symbol
 _atom_site_label
 _atom_site_symmetry_multiplicity
 _atom_site_fract_x
 _atom_site_fract_y
 _atom_site_fract_z
 _atom_site_occupancy
  Li  Li0  1  0.75607741  0.50245619  0.88506001  1
  Mg  Mg1  1  0.25635737  0.00161914  0.38466942  1
