# generated using pymatgen
data_LiNd2Ir
_symmetry_space_group_name_H-M   'P 1'
_cell_length_a   5.09667635
_cell_length_b   5.10240793
_cell_length_c   5.08052206
_cell_angle_alpha   59.91803741
_cell_angle_beta   59.90888977
_cell_angle_gamma   60.09352875
_symmetry_Int_Tables_number   1
_chemical_formula_structural   LiNd2Ir
_chemical_formula_sum   'Li1 Nd2 Ir1'
_cell_volume   93.36659174
_cell_formula_units_Z   1
loop_
 _symmetry_equiv_pos_site_id
 _symmetry_equiv_pos_as_xyz
  1  'x, y, z'
loop_
 _atom_site_type_symbol
 _atom_site_label
 _atom_site_symmetry_multiplicity
 _atom_site_fract_x
 _atom_site_fract_y
 _atom_site_fract_z
 _atom_site_occupancy
  Li  Li0  1  0.45448539  0.88519341  0.81498992  1
  Nd  Nd1  1  0.70482838  0.13533428  0.06548108  1
  Nd  Nd2  1  0.20474319  0.63551444  0.56565678  1
  Ir  Ir3  1  0.95509964  0.38498595  0.31448823  1
