# generated using pymatgen
data_LiNdIn2
_symmetry_space_group_name_H-M   'P 1'
_cell_length_a   5.13038206
_cell_length_b   5.13521624
_cell_length_c   5.12854815
_cell_angle_alpha   59.82052231
_cell_angle_beta   59.89672852
_cell_angle_gamma   60.04789734
_symmetry_Int_Tables_number   1
_chemical_formula_structural   LiNdIn2
_chemical_formula_sum   'Li1 Nd1 In2'
_cell_volume   95.37014394
_cell_formula_units_Z   1
loop_
 _symmetry_equiv_pos_site_id
 _symmetry_equiv_pos_as_xyz
  1  'x, y, z'
loop_
 _atom_site_type_symbol
 _atom_site_label
 _atom_site_symmetry_multiplicity
 _atom_site_fract_x
 _atom_site_fract_y
 _atom_site_fract_z
 _atom_site_occupancy
  Li  Li0  1  0.96769315  0.31655115  0.35281676  1
  Nd  Nd1  1  0.71775061  0.06714827  0.10196860  1
  In  In2  1  0.46801737  0.81694180  0.85249364  1
  In  In3  1  0.21795799  0.56707245  0.60209858  1
