# generated using pymatgen
data_LiPmZn2
_symmetry_space_group_name_H-M   'P 1'
_cell_length_a   4.81580210
_cell_length_b   4.81909657
_cell_length_c   4.82067347
_cell_angle_alpha   59.91473770
_cell_angle_beta   59.88612747
_cell_angle_gamma   60.06460190
_symmetry_Int_Tables_number   1
_chemical_formula_structural   LiPmZn2
_chemical_formula_sum   'Li1 Pm1 Zn2'
_cell_volume   79.02829823
_cell_formula_units_Z   1
loop_
 _symmetry_equiv_pos_site_id
 _symmetry_equiv_pos_as_xyz
  1  'x, y, z'
loop_
 _atom_site_type_symbol
 _atom_site_label
 _atom_site_symmetry_multiplicity
 _atom_site_fract_x
 _atom_site_fract_y
 _atom_site_fract_z
 _atom_site_occupancy
  Li  Li0  1  0.56284535  0.20960802  0.19597484  1
  Pm  Pm1  1  0.06254514  0.70995361  0.69609171  1
  Zn  Zn2  1  0.81238890  0.45994043  0.44516450  1
  Zn  Zn3  1  0.31268975  0.95975202  0.94534606  1
