# generated using pymatgen
data_LiPmHg2
_symmetry_space_group_name_H-M   'P 1'
_cell_length_a   5.10896730
_cell_length_b   5.10712624
_cell_length_c   5.08045959
_cell_angle_alpha   59.75866318
_cell_angle_beta   59.90325165
_cell_angle_gamma   60.20197678
_symmetry_Int_Tables_number   1
_chemical_formula_structural   LiPmHg2
_chemical_formula_sum   'Li1 Pm1 Hg2'
_cell_volume   93.63475272
_cell_formula_units_Z   1
loop_
 _symmetry_equiv_pos_site_id
 _symmetry_equiv_pos_as_xyz
  1  'x, y, z'
loop_
 _atom_site_type_symbol
 _atom_site_label
 _atom_site_symmetry_multiplicity
 _atom_site_fract_x
 _atom_site_fract_y
 _atom_site_fract_z
 _atom_site_occupancy
  Li  Li0  1  0.28435481  0.21794178  0.26832527  1
  Pm  Pm1  1  0.78456485  0.71841246  0.76870883  1
  Hg  Hg2  1  0.03430497  0.96821058  0.01840861  1
  Hg  Hg3  1  0.53436452  0.46816662  0.51830196  1
