# generated using pymatgen
data_LiV3O4
_symmetry_space_group_name_H-M   'P 1'
_cell_length_a   6.14010239
_cell_length_b   6.15063286
_cell_length_c   6.11882448
_cell_angle_alpha   60.02449417
_cell_angle_beta   59.98319626
_cell_angle_gamma   60.25669098
_symmetry_Int_Tables_number   1
_chemical_formula_structural   LiV3O4
_chemical_formula_sum   'Li2 V6 O8'
_cell_volume   163.72276454
_cell_formula_units_Z   2
loop_
 _symmetry_equiv_pos_site_id
 _symmetry_equiv_pos_as_xyz
  1  'x, y, z'
loop_
 _atom_site_type_symbol
 _atom_site_label
 _atom_site_symmetry_multiplicity
 _atom_site_fract_x
 _atom_site_fract_y
 _atom_site_fract_z
 _atom_site_occupancy
  Li  Li0  1  0.89657342  0.32831496  0.44216260  1
  Li  Li1  1  0.89716804  0.82841796  0.44206816  1
  V  V2  1  0.89665216  0.32906812  0.94270748  1
  V  V3  1  0.39654559  0.82910883  0.94272667  1
  V  V4  1  0.39666957  0.82898182  0.44256797  1
  V  V5  1  0.89702249  0.82918620  0.94198042  1
  V  V6  1  0.39740786  0.32932734  0.94236308  1
  V  V7  1  0.39691076  0.32890844  0.44227564  1
  O  O8  1  0.63435149  0.07818142  0.70263088  1
  O  O9  1  0.15162253  0.07325029  0.69825333  1
  O  O10  1  0.15801014  0.08088233  0.17952146  1
  O  O11  1  0.15232986  0.57295454  0.70026016  1
  O  O12  1  0.63433176  0.57953054  0.70214760  1
  O  O13  1  0.64108914  0.08448685  0.18279819  1
  O  O14  1  0.15856023  0.58254653  0.17613104  1
  O  O15  1  0.64081287  0.58383000  0.18837883  1
