# generated using pymatgen
data_LiZr2N3
_symmetry_space_group_name_H-M   'P 1'
_cell_length_a   5.61183786
_cell_length_b   5.61802340
_cell_length_c   5.61464977
_cell_angle_alpha   101.25688171
_cell_angle_beta   101.09732819
_cell_angle_gamma   120.06070709
_symmetry_Int_Tables_number   1
_chemical_formula_structural   LiZr2N3
_chemical_formula_sum   'Li2 Zr4 N6'
_cell_volume   141.20099358
_cell_formula_units_Z   2
loop_
 _symmetry_equiv_pos_site_id
 _symmetry_equiv_pos_as_xyz
  1  'x, y, z'
loop_
 _atom_site_type_symbol
 _atom_site_label
 _atom_site_symmetry_multiplicity
 _atom_site_fract_x
 _atom_site_fract_y
 _atom_site_fract_z
 _atom_site_occupancy
  Li  Li0  1  0.80797255  0.73513603  0.11260568  1
  Li  Li1  1  0.14263198  0.40198019  0.11202303  1
  Zr  Zr2  1  0.64638877  0.89887440  0.61183524  1
  Zr  Zr3  1  0.47797170  0.06552260  0.11182587  1
  Zr  Zr4  1  0.97603703  0.56689000  0.61189252  1
  Zr  Zr5  1  0.30639085  0.23920973  0.61218393  1
  N  N6  1  0.55814731  0.46704799  0.38407582  1
  N  N7  1  0.39537400  0.66867697  0.84534931  1
  N  N8  1  0.07924311  0.99018377  0.84637934  1
  N  N9  1  0.87434888  0.15761690  0.38309821  1
  N  N10  1  0.24590975  0.84011358  0.37518430  1
  N  N11  1  0.70792425  0.30436581  0.85220599  1
