# generated using pymatgen
data_Lu(AlCu)6
_symmetry_space_group_name_H-M   'P 1'
_cell_length_a   4.99248981
_cell_length_b   6.62061119
_cell_length_c   6.65478849
_cell_angle_alpha   81.98980713
_cell_angle_beta   67.82805634
_cell_angle_gamma   68.30864716
_symmetry_Int_Tables_number   1
_chemical_formula_structural   Lu(AlCu)6
_chemical_formula_sum   'Lu1 Al6 Cu6'
_cell_volume   189.27371118
_cell_formula_units_Z   1
loop_
 _symmetry_equiv_pos_site_id
 _symmetry_equiv_pos_as_xyz
  1  'x, y, z'
loop_
 _atom_site_type_symbol
 _atom_site_label
 _atom_site_symmetry_multiplicity
 _atom_site_fract_x
 _atom_site_fract_y
 _atom_site_fract_z
 _atom_site_occupancy
  Lu  Lu0  1  0.00577378  0.83231086  0.94776243  1
  Al  Al1  1  0.70938498  0.62315661  0.74154937  1
  Al  Al2  1  0.00321524  0.46644887  0.29719096  1
  Al  Al3  1  0.00305112  0.83977485  0.44820538  1
  Al  Al4  1  0.29016474  0.03641323  0.15934250  1
  Al  Al5  1  0.53980440  0.30587247  0.94992596  1
  Al  Al6  1  0.36453220  0.46447086  0.58508784  1
  Cu  Cu7  1  0.00688128  0.19037190  0.58832526  1
  Cu  Cu8  1  0.01233960  0.32996112  0.94052088  1
  Cu  Cu9  1  0.50396580  0.60641921  0.17012122  1
  Cu  Cu10  1  0.65431172  0.18005376  0.30033684  1
  Cu  Cu11  1  0.50439453  0.05236357  0.72310841  1
  Cu  Cu12  1  0.50831747  0.82913321  0.44797543  1
