# generated using pymatgen
data_Lu2IrRu
_symmetry_space_group_name_H-M   'P 1'
_cell_length_a   4.75546265
_cell_length_b   4.74030304
_cell_length_c   4.75473642
_cell_angle_alpha   59.86500549
_cell_angle_beta   60.09668732
_cell_angle_gamma   60.00012589
_symmetry_Int_Tables_number   1
_chemical_formula_structural   Lu2IrRu
_chemical_formula_sum   'Lu2 Ir1 Ru1'
_cell_volume   75.76722839
_cell_formula_units_Z   1
loop_
 _symmetry_equiv_pos_site_id
 _symmetry_equiv_pos_as_xyz
  1  'x, y, z'
loop_
 _atom_site_type_symbol
 _atom_site_label
 _atom_site_symmetry_multiplicity
 _atom_site_fract_x
 _atom_site_fract_y
 _atom_site_fract_z
 _atom_site_occupancy
  Lu  Lu0  1  0.32636258  0.85158592  0.52474415  1
  Lu  Lu1  1  0.82651657  0.35171613  0.02467671  1
  Ir  Ir2  1  0.57623869  0.10110451  0.77484089  1
  Ru  Ru3  1  0.07596649  0.60150886  0.27485690  1
