# generated using pymatgen
data_Lu3(CuSn)4
_symmetry_space_group_name_H-M   'P 1'
_cell_length_a   4.36364222
_cell_length_b   7.31950951
_cell_length_c   7.49622011
_cell_angle_alpha   102.49020386
_cell_angle_beta   90.31259918
_cell_angle_gamma   89.87294769
_symmetry_Int_Tables_number   1
_chemical_formula_structural   Lu3(CuSn)4
_chemical_formula_sum   'Lu3 Cu4 Sn4'
_cell_volume   233.75704208
_cell_formula_units_Z   1
loop_
 _symmetry_equiv_pos_site_id
 _symmetry_equiv_pos_as_xyz
  1  'x, y, z'
loop_
 _atom_site_type_symbol
 _atom_site_label
 _atom_site_symmetry_multiplicity
 _atom_site_fract_x
 _atom_site_fract_y
 _atom_site_fract_z
 _atom_site_occupancy
  Lu  Lu0  1  0.05350142  0.77734011  0.21644288  1
  Lu  Lu1  1  0.05350544  0.30589876  0.36941913  1
  Lu  Lu2  1  0.05376416  0.91758162  0.72434634  1
  Cu  Cu3  1  0.55365038  0.46221471  0.11992384  1
  Cu  Cu4  1  0.55344069  0.25311235  0.77867401  1
  Cu  Cu5  1  0.55329692  0.69424301  0.89749920  1
  Cu  Cu6  1  0.05365602  0.24796344  0.00320923  1
  Sn  Sn7  1  0.55368370  0.03677164  0.47035632  1
  Sn  Sn8  1  0.05363394  0.48949432  0.81059164  1
  Sn  Sn9  1  0.55343640  0.62240392  0.49141407  1
  Sn  Sn10  1  0.55345827  0.06320388  0.06070723  1
