# generated using pymatgen
data_Lu3Ga5Co
_symmetry_space_group_name_H-M   'P 1'
_cell_length_a   4.15683794
_cell_length_b   6.93022203
_cell_length_c   6.94379854
_cell_angle_alpha   119.90485382
_cell_angle_beta   89.99581146
_cell_angle_gamma   89.94451141
_symmetry_Int_Tables_number   1
_chemical_formula_structural   Lu3Ga5Co
_chemical_formula_sum   'Lu3 Ga5 Co1'
_cell_volume   173.40167084
_cell_formula_units_Z   1
loop_
 _symmetry_equiv_pos_site_id
 _symmetry_equiv_pos_as_xyz
  1  'x, y, z'
loop_
 _atom_site_type_symbol
 _atom_site_label
 _atom_site_symmetry_multiplicity
 _atom_site_fract_x
 _atom_site_fract_y
 _atom_site_fract_z
 _atom_site_occupancy
  Lu  Lu0  1  0.77232695  0.11360984  0.77572715  1
  Lu  Lu1  1  0.77206761  0.52139139  0.34908563  1
  Lu  Lu2  1  0.77235293  0.69889575  0.93465203  1
  Ga  Ga3  1  0.27250785  0.36088958  0.59994113  1
  Ga  Ga4  1  0.77232826  0.10928936  0.34143886  1
  Ga  Ga5  1  0.27238792  0.44105509  0.01964908  1
  Ga  Ga6  1  0.27157381  0.86500078  0.34146023  1
  Ga  Ga7  1  0.27207857  0.78325820  0.68488061  1
  Co  Co8  1  0.27201915  0.10964107  0.10357314  1
