# generated using pymatgen
data_Lu3Ge3Ir2
_symmetry_space_group_name_H-M   'P 1'
_cell_length_a   4.30283213
_cell_length_b   6.35928965
_cell_length_c   12.31138611
_cell_angle_alpha   95.86968231
_cell_angle_beta   90.01406860
_cell_angle_gamma   110.00936890
_symmetry_Int_Tables_number   1
_chemical_formula_structural   Lu3Ge3Ir2
_chemical_formula_sum   'Lu6 Ge6 Ir4'
_cell_volume   314.65751807
_cell_formula_units_Z   2
loop_
 _symmetry_equiv_pos_site_id
 _symmetry_equiv_pos_as_xyz
  1  'x, y, z'
loop_
 _atom_site_type_symbol
 _atom_site_label
 _atom_site_symmetry_multiplicity
 _atom_site_fract_x
 _atom_site_fract_y
 _atom_site_fract_z
 _atom_site_occupancy
  Lu  Lu0  1  0.93414062  0.56175047  0.39646417  1
  Lu  Lu1  1  0.64194775  0.97247028  0.13062106  1
  Lu  Lu2  1  0.35617647  0.40858915  0.18599497  1
  Lu  Lu3  1  0.97302490  0.63399857  0.81029087  1
  Lu  Lu4  1  0.67263967  0.03773956  0.80875903  1
  Lu  Lu5  1  0.12687683  0.95110112  0.58257329  1
  Ge  Ge6  1  0.64264387  0.97849315  0.41019747  1
  Ge  Ge7  1  0.44411692  0.58332229  0.96271348  1
  Ge  Ge8  1  0.30718574  0.30550456  0.46272522  1
  Ge  Ge9  1  0.99518675  0.68629158  0.15430488  1
  Ge  Ge10  1  0.46345678  0.61990911  0.63169402  1
  Ge  Ge11  1  0.20853059  0.11070334  0.96712989  1
  Ir  Ir12  1  0.83022130  0.35355669  0.60395414  1
  Ir  Ir13  1  0.31076145  0.31816766  0.77360606  1
  Ir  Ir14  1  0.83032930  0.36083525  0.00194645  1
  Ir  Ir15  1  0.16104504  0.01253067  0.30824438  1
