# generated using pymatgen
data_LuAl2Pd5
_symmetry_space_group_name_H-M   'P 1'
_cell_length_a   4.03046846
_cell_length_b   4.02738953
_cell_length_c   8.10382271
_cell_angle_alpha   89.82096863
_cell_angle_beta   89.94027710
_cell_angle_gamma   89.98442078
_symmetry_Int_Tables_number   1
_chemical_formula_structural   LuAl2Pd5
_chemical_formula_sum   'Lu1 Al2 Pd5'
_cell_volume   131.54269131
_cell_formula_units_Z   1
loop_
 _symmetry_equiv_pos_site_id
 _symmetry_equiv_pos_as_xyz
  1  'x, y, z'
loop_
 _atom_site_type_symbol
 _atom_site_label
 _atom_site_symmetry_multiplicity
 _atom_site_fract_x
 _atom_site_fract_y
 _atom_site_fract_z
 _atom_site_occupancy
  Lu  Lu0  1  0.27732578  0.26099226  0.20056488  1
  Al  Al1  1  0.27814278  0.76111388  0.90643704  1
  Al  Al2  1  0.77850610  0.26074013  0.51470613  1
  Pd  Pd3  1  0.27799019  0.76107997  0.45114765  1
  Pd  Pd4  1  0.77747446  0.76082891  0.69966894  1
  Pd  Pd5  1  0.77786380  0.76142460  0.17728153  1
  Pd  Pd6  1  0.27786744  0.26095828  0.70022500  1
  Pd  Pd7  1  0.77751458  0.26104534  0.93475163  1
