# generated using pymatgen
data_LuCdNi4
_symmetry_space_group_name_H-M   'P 1'
_cell_length_a   4.97281647
_cell_length_b   4.97060871
_cell_length_c   4.95609713
_cell_angle_alpha   59.46588135
_cell_angle_beta   59.55159760
_cell_angle_gamma   59.84035110
_symmetry_Int_Tables_number   1
_chemical_formula_structural   LuCdNi4
_chemical_formula_sum   'Lu1 Cd1 Ni4'
_cell_volume   85.87217557
_cell_formula_units_Z   1
loop_
 _symmetry_equiv_pos_site_id
 _symmetry_equiv_pos_as_xyz
  1  'x, y, z'
loop_
 _atom_site_type_symbol
 _atom_site_label
 _atom_site_symmetry_multiplicity
 _atom_site_fract_x
 _atom_site_fract_y
 _atom_site_fract_z
 _atom_site_occupancy
  Lu  Lu0  1  0.15131345  0.30366278  0.60789901  1
  Cd  Cd1  1  0.90147549  0.05310354  0.35712266  1
  Ni  Ni2  1  0.52512282  0.17754558  0.98152781  1
  Ni  Ni3  1  0.52481115  0.67824727  0.98051834  1
  Ni  Ni4  1  0.02444244  0.67805916  0.98119473  1
  Ni  Ni5  1  0.52452815  0.67851669  0.48104802  1
