# generated using pymatgen
data_LuGa5Co
_symmetry_space_group_name_H-M   'P 1'
_cell_length_a   4.16969681
_cell_length_b   4.16145039
_cell_length_c   6.81981707
_cell_angle_alpha   89.86927795
_cell_angle_beta   89.75025940
_cell_angle_gamma   89.97824860
_symmetry_Int_Tables_number   1
_chemical_formula_structural   LuGa5Co
_chemical_formula_sum   'Lu1 Ga5 Co1'
_cell_volume   118.33593269
_cell_formula_units_Z   1
loop_
 _symmetry_equiv_pos_site_id
 _symmetry_equiv_pos_as_xyz
  1  'x, y, z'
loop_
 _atom_site_type_symbol
 _atom_site_label
 _atom_site_symmetry_multiplicity
 _atom_site_fract_x
 _atom_site_fract_y
 _atom_site_fract_z
 _atom_site_occupancy
  Lu  Lu0  1  0.47256249  0.05384365  0.84044874  1
  Ga  Ga1  1  0.97267985  0.55401379  0.84158593  1
  Ga  Ga2  1  0.47269112  0.55370951  0.14487936  1
  Ga  Ga3  1  0.97240758  0.05409316  0.14542411  1
  Ga  Ga4  1  0.47244537  0.55409622  0.53143144  1
  Ga  Ga5  1  0.97282529  0.05439708  0.53091103  1
  Co  Co6  1  0.47287628  0.05378054  0.33970436  1
