# generated using pymatgen
data_LuIn
_symmetry_space_group_name_H-M   'P 1'
_cell_length_a   3.72491717
_cell_length_b   3.68701077
_cell_length_c   3.77163172
_cell_angle_alpha   89.61306000
_cell_angle_beta   90.09560394
_cell_angle_gamma   90.23765564
_symmetry_Int_Tables_number   1
_chemical_formula_structural   LuIn
_chemical_formula_sum   'Lu1 In1'
_cell_volume   51.79717582
_cell_formula_units_Z   1
loop_
 _symmetry_equiv_pos_site_id
 _symmetry_equiv_pos_as_xyz
  1  'x, y, z'
loop_
 _atom_site_type_symbol
 _atom_site_label
 _atom_site_symmetry_multiplicity
 _atom_site_fract_x
 _atom_site_fract_y
 _atom_site_fract_z
 _atom_site_occupancy
  Lu  Lu0  1  0.91624224  0.22136746  0.39333454  1
  In  In1  1  0.41671133  0.72125906  0.89306897  1
