# generated using pymatgen
data_LuNbO4
_symmetry_space_group_name_H-M   'P 1'
_cell_length_a   5.09845591
_cell_length_b   5.31535816
_cell_length_c   6.42744207
_cell_angle_alpha   111.20197296
_cell_angle_beta   110.65956879
_cell_angle_gamma   97.32032013
_symmetry_Int_Tables_number   1
_chemical_formula_structural   LuNbO4
_chemical_formula_sum   'Lu2 Nb2 O8'
_cell_volume   145.31360226
_cell_formula_units_Z   2
loop_
 _symmetry_equiv_pos_site_id
 _symmetry_equiv_pos_as_xyz
  1  'x, y, z'
loop_
 _atom_site_type_symbol
 _atom_site_label
 _atom_site_symmetry_multiplicity
 _atom_site_fract_x
 _atom_site_fract_y
 _atom_site_fract_z
 _atom_site_occupancy
  Lu  Lu0  1  0.94178015  0.24725668  0.60832965  1
  Lu  Lu1  1  0.69632608  0.50301611  0.12419958  1
  Nb  Nb2  1  0.17730036  0.98254865  0.08001286  1
  Nb  Nb3  1  0.46432784  0.76798457  0.65835112  1
  O  O4  1  0.10369620  0.50475776  0.44770819  1
  O  O5  1  0.88926083  0.15798597  0.93644428  1
  O  O6  1  0.31789431  0.09325454  0.80307287  1
  O  O7  1  0.53838062  0.24833578  0.28929764  1
  O  O8  1  0.31340992  0.65433013  0.93676376  1
  O  O9  1  0.74231094  0.58434099  0.80274600  1
  O  O10  1  0.61059743  0.83059925  0.44782060  1
  O  O11  1  0.02428854  0.92449951  0.28945979  1
