# generated using pymatgen
data_LuSiPt2
_symmetry_space_group_name_H-M   'P 1'
_cell_length_a   5.57943153
_cell_length_b   6.90450335
_cell_length_c   7.18421030
_cell_angle_alpha   89.88076782
_cell_angle_beta   89.92871094
_cell_angle_gamma   89.98870087
_symmetry_Int_Tables_number   1
_chemical_formula_structural   LuSiPt2
_chemical_formula_sum   'Lu4 Si4 Pt8'
_cell_volume   276.75797804
_cell_formula_units_Z   4
loop_
 _symmetry_equiv_pos_site_id
 _symmetry_equiv_pos_as_xyz
  1  'x, y, z'
loop_
 _atom_site_type_symbol
 _atom_site_label
 _atom_site_symmetry_multiplicity
 _atom_site_fract_x
 _atom_site_fract_y
 _atom_site_fract_z
 _atom_site_occupancy
  Lu  Lu0  1  0.75890094  0.08551072  0.04554290  1
  Lu  Lu1  1  0.54606891  0.08469754  0.54551774  1
  Lu  Lu2  1  0.25989014  0.58503604  0.59468812  1
  Lu  Lu3  1  0.04627940  0.58540094  0.09494673  1
  Si  Si4  1  0.75900984  0.58490092  0.44884622  1
  Si  Si5  1  0.04468452  0.08544584  0.69179946  1
  Si  Si6  1  0.54464877  0.58611870  0.94906557  1
  Si  Si7  1  0.25850520  0.08517818  0.19242768  1
  Pt  Pt8  1  0.80784959  0.78660780  0.75242674  1
  Pt  Pt9  1  0.30771217  0.88513476  0.88838089  1
  Pt  Pt10  1  0.99102145  0.88549787  0.38873461  1
  Pt  Pt11  1  0.99069107  0.28711167  0.38860759  1
  Pt  Pt12  1  0.30820107  0.28595078  0.88836020  1
  Pt  Pt13  1  0.49072525  0.38555348  0.25209752  1
  Pt  Pt14  1  0.80877894  0.38467968  0.75221491  1
  Pt  Pt15  1  0.49097943  0.78675455  0.25221682  1
