# generated using pymatgen
data_Mg15Sb
_symmetry_space_group_name_H-M   'P 1'
_cell_length_a   6.57744455
_cell_length_b   6.55257320
_cell_length_c   8.55343342
_cell_angle_alpha   89.94709015
_cell_angle_beta   89.98089600
_cell_angle_gamma   90.15289307
_symmetry_Int_Tables_number   1
_chemical_formula_structural   Mg15Sb
_chemical_formula_sum   'Mg15 Sb1'
_cell_volume   368.64453529
_cell_formula_units_Z   1
loop_
 _symmetry_equiv_pos_site_id
 _symmetry_equiv_pos_as_xyz
  1  'x, y, z'
loop_
 _atom_site_type_symbol
 _atom_site_label
 _atom_site_symmetry_multiplicity
 _atom_site_fract_x
 _atom_site_fract_y
 _atom_site_fract_z
 _atom_site_occupancy
  Mg  Mg0  1  0.42266005  0.72803730  0.24787919  1
  Mg  Mg1  1  0.92253745  0.72826082  0.24789855  1
  Mg  Mg2  1  0.17264591  0.97860891  0.49726504  1
  Mg  Mg3  1  0.42230362  0.22830461  0.24751341  1
  Mg  Mg4  1  0.42302167  0.72880691  0.74769199  1
  Mg  Mg5  1  0.17229755  0.47844547  0.49730018  1
  Mg  Mg6  1  0.17216453  0.97792560  0.99825579  1
  Mg  Mg7  1  0.17272711  0.47874933  0.99785984  1
  Mg  Mg8  1  0.42286730  0.22817215  0.74796975  1
  Mg  Mg9  1  0.67286873  0.47886512  0.99765438  1
  Mg  Mg10  1  0.92239279  0.22827287  0.24769375  1
  Mg  Mg11  1  0.67281508  0.97814173  0.99794620  1
  Mg  Mg12  1  0.92248535  0.72821146  0.74778330  1
  Mg  Mg13  1  0.67281204  0.97872204  0.49696574  1
  Mg  Mg14  1  0.92289448  0.22813991  0.74768817  1
  Sb  Sb15  1  0.67273200  0.47887623  0.49747980  1
