# generated using pymatgen
data_Mg2Ag
_symmetry_space_group_name_H-M   'P 1'
_cell_length_a   3.96292377
_cell_length_b   5.37711620
_cell_length_c   6.39532948
_cell_angle_alpha   105.64301300
_cell_angle_beta   89.51176453
_cell_angle_gamma   111.98981476
_symmetry_Int_Tables_number   1
_chemical_formula_structural   Mg2Ag
_chemical_formula_sum   'Mg4 Ag2'
_cell_volume   121.03010256
_cell_formula_units_Z   2
loop_
 _symmetry_equiv_pos_site_id
 _symmetry_equiv_pos_as_xyz
  1  'x, y, z'
loop_
 _atom_site_type_symbol
 _atom_site_label
 _atom_site_symmetry_multiplicity
 _atom_site_fract_x
 _atom_site_fract_y
 _atom_site_fract_z
 _atom_site_occupancy
  Mg  Mg0  1  0.59832352  0.25806710  0.00123298  1
  Mg  Mg1  1  0.27515984  0.61662710  0.80877584  1
  Mg  Mg2  1  0.59911853  0.25928947  0.49239001  1
  Mg  Mg3  1  0.91332388  0.88662875  0.18587230  1
  Ag  Ag4  1  0.94493145  0.94739026  0.67118019  1
  Ag  Ag5  1  0.25744730  0.57786447  0.33000737  1
