# generated using pymatgen
data_Mg2Cd
_symmetry_space_group_name_H-M   'P 1'
_cell_length_a   3.22568536
_cell_length_b   6.02057743
_cell_length_c   7.45447206
_cell_angle_alpha   104.90025330
_cell_angle_beta   90.00038147
_cell_angle_gamma   105.09435272
_symmetry_Int_Tables_number   1
_chemical_formula_structural   Mg2Cd
_chemical_formula_sum   'Mg4 Cd2'
_cell_volume   134.72639476
_cell_formula_units_Z   2
loop_
 _symmetry_equiv_pos_site_id
 _symmetry_equiv_pos_as_xyz
  1  'x, y, z'
loop_
 _atom_site_type_symbol
 _atom_site_label
 _atom_site_symmetry_multiplicity
 _atom_site_fract_x
 _atom_site_fract_y
 _atom_site_fract_z
 _atom_site_occupancy
  Mg  Mg0  1  0.39848003  0.94823807  0.16371958  1
  Mg  Mg1  1  0.72585154  0.60439962  0.82798523  1
  Mg  Mg2  1  0.67615867  0.50338358  0.22359297  1
  Mg  Mg3  1  0.34702244  0.84495872  0.55891544  1
  Cd  Cd4  1  0.00881011  0.16851290  0.89401263  1
  Cd  Cd5  1  0.06506298  0.28189549  0.49529567  1
