# generated using pymatgen
data_Mg2Ga
_symmetry_space_group_name_H-M   'P 1'
_cell_length_a   3.17076564
_cell_length_b   5.82592583
_cell_length_c   7.16141081
_cell_angle_alpha   103.14122772
_cell_angle_beta   90.23229980
_cell_angle_gamma   106.73851776
_symmetry_Int_Tables_number   1
_chemical_formula_structural   Mg2Ga
_chemical_formula_sum   'Mg4 Ga2'
_cell_volume   123.02399430
_cell_formula_units_Z   2
loop_
 _symmetry_equiv_pos_site_id
 _symmetry_equiv_pos_as_xyz
  1  'x, y, z'
loop_
 _atom_site_type_symbol
 _atom_site_label
 _atom_site_symmetry_multiplicity
 _atom_site_fract_x
 _atom_site_fract_y
 _atom_site_fract_z
 _atom_site_occupancy
  Mg  Mg0  1  0.59318483  0.83111739  0.37735435  1
  Mg  Mg1  1  0.91817075  0.48086721  0.06077940  1
  Mg  Mg2  1  0.97243053  0.58677447  0.65704751  1
  Mg  Mg3  1  0.25101790  0.14598536  0.72516668  1
  Ga  Ga4  1  0.63984740  0.92098892  0.99398494  1
  Ga  Ga5  1  0.30729958  0.25797543  0.32426676  1
