# generated using pymatgen
data_Mg2SnO4
_symmetry_space_group_name_H-M   'P 1'
_cell_length_a   5.19662809
_cell_length_b   5.21445465
_cell_length_c   6.27841187
_cell_angle_alpha   89.94387054
_cell_angle_beta   90.09739685
_cell_angle_gamma   73.67283630
_symmetry_Int_Tables_number   1
_chemical_formula_structural   Mg2SnO4
_chemical_formula_sum   'Mg4 Sn2 O8'
_cell_volume   163.26838016
_cell_formula_units_Z   2
loop_
 _symmetry_equiv_pos_site_id
 _symmetry_equiv_pos_as_xyz
  1  'x, y, z'
loop_
 _atom_site_type_symbol
 _atom_site_label
 _atom_site_symmetry_multiplicity
 _atom_site_fract_x
 _atom_site_fract_y
 _atom_site_fract_z
 _atom_site_occupancy
  Mg  Mg0  1  0.24897280  0.38790259  0.07689512  1
  Mg  Mg1  1  0.24891819  0.88789153  0.34418395  1
  Mg  Mg2  1  0.24915469  0.88801706  0.80232430  1
  Mg  Mg3  1  0.74920654  0.88857174  0.07733116  1
  Sn  Sn4  1  0.74986255  0.38803306  0.80574024  1
  Sn  Sn5  1  0.74919760  0.38817376  0.34261999  1
  O  O6  1  0.00100529  0.63794011  0.29289165  1
  O  O7  1  0.99847502  0.13982119  0.07795835  1
  O  O8  1  0.50025243  0.13854720  0.86559534  1
  O  O9  1  0.99837703  0.14057520  0.57867360  1
  O  O10  1  0.50206113  0.63832718  0.07802698  1
  O  O11  1  0.99993700  0.63867605  0.86551124  1
  O  O12  1  0.50059581  0.13801244  0.29498672  1
  O  O13  1  0.50156146  0.63891602  0.57867903  1
