# generated using pymatgen
data_Mg2SiB2Ir5
_symmetry_space_group_name_H-M   'P 1'
_cell_length_a   3.00329065
_cell_length_b   9.36888409
_cell_length_c   9.39864922
_cell_angle_alpha   90.00910950
_cell_angle_beta   90.54573822
_cell_angle_gamma   89.86452484
_symmetry_Int_Tables_number   1
_chemical_formula_structural   Mg2SiB2Ir5
_chemical_formula_sum   'Mg4 Si2 B4 Ir10'
_cell_volume   264.44158540
_cell_formula_units_Z   2
loop_
 _symmetry_equiv_pos_site_id
 _symmetry_equiv_pos_as_xyz
  1  'x, y, z'
loop_
 _atom_site_type_symbol
 _atom_site_label
 _atom_site_symmetry_multiplicity
 _atom_site_fract_x
 _atom_site_fract_y
 _atom_site_fract_z
 _atom_site_occupancy
  Mg  Mg0  1  0.10470428  0.66792202  0.41662526  1
  Mg  Mg1  1  0.10447332  0.15456462  0.26055774  1
  Mg  Mg2  1  0.10471523  0.80863827  0.91837353  1
  Mg  Mg3  1  0.10486607  0.30981377  0.78139549  1
  Si  Si4  1  0.10468818  0.35846379  0.46668625  1
  Si  Si5  1  0.10456310  0.98781955  0.59490067  1
  B  B6  1  0.10462999  0.85731989  0.22198166  1
  B  B7  1  0.10452167  0.61269408  0.72280222  1
  B  B8  1  0.10459989  0.11151281  0.96928877  1
  B  B9  1  0.10532834  0.48641700  0.09446876  1
  Ir  Ir10  1  0.60460651  0.98445553  0.09560829  1
  Ir  Ir11  1  0.60457677  0.28135926  0.02447926  1
  Ir  Ir12  1  0.60463059  0.55545181  0.88341755  1
  Ir  Ir13  1  0.60459310  0.18927759  0.52481562  1
  Ir  Ir14  1  0.60428172  0.91332150  0.38118201  1
  Ir  Ir15  1  0.60480303  0.49216706  0.59634995  1
  Ir  Ir16  1  0.60467529  0.05603787  0.80735141  1
  Ir  Ir17  1  0.60445964  0.41858482  0.28867885  1
  Ir  Ir18  1  0.60451692  0.77882850  0.66062176  1
  Ir  Ir19  1  0.60469550  0.68847519  0.15922971  1
