# generated using pymatgen
data_Mg5Cu
_symmetry_space_group_name_H-M   'P 1'
_cell_length_a   5.20808268
_cell_length_b   5.26621819
_cell_length_c   5.73203087
_cell_angle_alpha   63.55907440
_cell_angle_beta   63.24805832
_cell_angle_gamma   60.19048309
_symmetry_Int_Tables_number   1
_chemical_formula_structural   Mg5Cu
_chemical_formula_sum   'Mg5 Cu1'
_cell_volume   116.72529396
_cell_formula_units_Z   1
loop_
 _symmetry_equiv_pos_site_id
 _symmetry_equiv_pos_as_xyz
  1  'x, y, z'
loop_
 _atom_site_type_symbol
 _atom_site_label
 _atom_site_symmetry_multiplicity
 _atom_site_fract_x
 _atom_site_fract_y
 _atom_site_fract_z
 _atom_site_occupancy
  Mg  Mg0  1  0.17362030  0.93381202  0.79826039  1
  Mg  Mg1  1  0.00009882  0.10073490  0.30357066  1
  Mg  Mg2  1  0.33357283  0.44576919  0.30198774  1
  Mg  Mg3  1  0.67444146  0.76716495  0.30150881  1
  Mg  Mg4  1  0.50497967  0.27006710  0.80002582  1
  Cu  Cu5  1  0.83779299  0.60201401  0.80325931  1
