# generated using pymatgen
data_MgCuAs
_symmetry_space_group_name_H-M   'P 1'
_cell_length_a   3.98852849
_cell_length_b   3.99523544
_cell_length_c   6.44081068
_cell_angle_alpha   89.91628265
_cell_angle_beta   89.85477448
_cell_angle_gamma   89.98952484
_symmetry_Int_Tables_number   1
_chemical_formula_structural   MgCuAs
_chemical_formula_sum   'Mg2 Cu2 As2'
_cell_volume   102.63458829
_cell_formula_units_Z   2
loop_
 _symmetry_equiv_pos_site_id
 _symmetry_equiv_pos_as_xyz
  1  'x, y, z'
loop_
 _atom_site_type_symbol
 _atom_site_label
 _atom_site_symmetry_multiplicity
 _atom_site_fract_x
 _atom_site_fract_y
 _atom_site_fract_z
 _atom_site_occupancy
  Mg  Mg0  1  0.74838382  0.46163520  0.69232726  1
  Mg  Mg1  1  0.24836832  0.96153629  0.00190115  1
  Cu  Cu2  1  0.74836558  0.96162224  0.34681004  1
  Cu  Cu3  1  0.24821523  0.46219745  0.34667259  1
  As  As4  1  0.24790642  0.96212888  0.58452809  1
  As  As5  1  0.74822986  0.46185777  0.10742673  1
