# generated using pymatgen
data_MgCu2O3
_symmetry_space_group_name_H-M   'P 1'
_cell_length_a   3.02652073
_cell_length_b   5.32491779
_cell_length_c   8.31106758
_cell_angle_alpha   99.28031158
_cell_angle_beta   90.02845001
_cell_angle_gamma   90.34217834
_symmetry_Int_Tables_number   1
_chemical_formula_structural   MgCu2O3
_chemical_formula_sum   'Mg2 Cu4 O6'
_cell_volume   132.18532014
_cell_formula_units_Z   2
loop_
 _symmetry_equiv_pos_site_id
 _symmetry_equiv_pos_as_xyz
  1  'x, y, z'
loop_
 _atom_site_type_symbol
 _atom_site_label
 _atom_site_symmetry_multiplicity
 _atom_site_fract_x
 _atom_site_fract_y
 _atom_site_fract_z
 _atom_site_occupancy
  Mg  Mg0  1  0.54336643  0.82555461  0.57237291  1
  Mg  Mg1  1  0.04329272  0.72443050  0.87763792  1
  Cu  Cu2  1  0.54432166  0.01007466  0.22296371  1
  Cu  Cu3  1  0.04311310  0.32507199  0.57072365  1
  Cu  Cu4  1  0.04306375  0.50926733  0.22268969  1
  Cu  Cu5  1  0.54334724  0.22646831  0.87990439  1
  O  O6  1  0.04399377  0.62728053  0.44527841  1
  O  O7  1  0.04326242  0.41222417  0.99731719  1
  O  O8  1  0.54359114  0.51265872  0.72321922  1
  O  O9  1  0.54308945  0.91590452  0.99865144  1
  O  O10  1  0.04297255  0.01249378  0.72335106  1
  O  O11  1  0.54357123  0.13060728  0.44608703  1
