# generated using pymatgen
data_MgPb5
_symmetry_space_group_name_H-M   'P 1'
_cell_length_a   3.40273166
_cell_length_b   6.89799738
_cell_length_c   7.84277725
_cell_angle_alpha   105.11915588
_cell_angle_beta   89.72679901
_cell_angle_gamma   104.52040100
_symmetry_Int_Tables_number   1
_chemical_formula_structural   MgPb5
_chemical_formula_sum   'Mg1 Pb5'
_cell_volume   171.67502887
_cell_formula_units_Z   1
loop_
 _symmetry_equiv_pos_site_id
 _symmetry_equiv_pos_as_xyz
  1  'x, y, z'
loop_
 _atom_site_type_symbol
 _atom_site_label
 _atom_site_symmetry_multiplicity
 _atom_site_fract_x
 _atom_site_fract_y
 _atom_site_fract_z
 _atom_site_occupancy
  Mg  Mg0  1  0.68383217  0.06848958  0.51138163  1
  Pb  Pb1  1  0.96506882  0.63247722  0.57105118  1
  Pb  Pb2  1  0.01812806  0.74027431  0.18657979  1
  Pb  Pb3  1  0.29629645  0.29073504  0.24846698  1
  Pb  Pb4  1  0.34342313  0.39008400  0.83377230  1
  Pb  Pb5  1  0.62999314  0.96263325  0.90268213  1
