# generated using pymatgen
data_MgPSe3
_symmetry_space_group_name_H-M   'P 1'
_cell_length_a   6.32640076
_cell_length_b   6.35814333
_cell_length_c   7.02938795
_cell_angle_alpha   89.83777618
_cell_angle_beta   89.79785919
_cell_angle_gamma   120.10674286
_symmetry_Int_Tables_number   1
_chemical_formula_structural   MgPSe3
_chemical_formula_sum   'Mg2 P2 Se6'
_cell_volume   244.60096971
_cell_formula_units_Z   2
loop_
 _symmetry_equiv_pos_site_id
 _symmetry_equiv_pos_as_xyz
  1  'x, y, z'
loop_
 _atom_site_type_symbol
 _atom_site_label
 _atom_site_symmetry_multiplicity
 _atom_site_fract_x
 _atom_site_fract_y
 _atom_site_fract_z
 _atom_site_occupancy
  Mg  Mg0  1  0.18092535  0.99887526  0.74060959  1
  Mg  Mg1  1  0.84706658  0.33222511  0.24062230  1
  P  P2  1  0.51418859  0.66495782  0.40916219  1
  P  P3  1  0.51409203  0.66542190  0.09092303  1
  Se  Se4  1  0.52507770  0.00097346  0.48930758  1
  Se  Se5  1  0.50632167  0.32550699  0.98934495  1
  Se  Se6  1  0.84386742  0.66653961  0.48967710  1
  Se  Se7  1  0.19369301  0.34658712  0.48941663  1
  Se  Se8  1  0.19349650  0.66648471  0.98910850  1
  Se  Se9  1  0.83748442  0.98470157  0.98894113  1
