# generated using pymatgen
data_MgSe
_symmetry_space_group_name_H-M   'P 1'
_cell_length_a   4.23159599
_cell_length_b   4.21499538
_cell_length_c   4.20868921
_cell_angle_alpha   58.74205017
_cell_angle_beta   59.10980988
_cell_angle_gamma   59.91213608
_symmetry_Int_Tables_number   1
_chemical_formula_structural   MgSe
_chemical_formula_sum   'Mg1 Se1'
_cell_volume   52.16749585
_cell_formula_units_Z   1
loop_
 _symmetry_equiv_pos_site_id
 _symmetry_equiv_pos_as_xyz
  1  'x, y, z'
loop_
 _atom_site_type_symbol
 _atom_site_label
 _atom_site_symmetry_multiplicity
 _atom_site_fract_x
 _atom_site_fract_y
 _atom_site_fract_z
 _atom_site_occupancy
  Mg  Mg0  1  0.02911109  0.48658839  0.75012732  1
  Se  Se1  1  0.27849144  0.73716915  0.99966109  1
