# generated using pymatgen
data_MgSnRu2
_symmetry_space_group_name_H-M   'P 1'
_cell_length_a   4.49564362
_cell_length_b   4.51637888
_cell_length_c   4.49837255
_cell_angle_alpha   60.06266022
_cell_angle_beta   60.12780762
_cell_angle_gamma   60.08847809
_symmetry_Int_Tables_number   1
_chemical_formula_structural   MgSnRu2
_chemical_formula_sum   'Mg1 Sn1 Ru2'
_cell_volume   64.71969068
_cell_formula_units_Z   1
loop_
 _symmetry_equiv_pos_site_id
 _symmetry_equiv_pos_as_xyz
  1  'x, y, z'
loop_
 _atom_site_type_symbol
 _atom_site_label
 _atom_site_symmetry_multiplicity
 _atom_site_fract_x
 _atom_site_fract_y
 _atom_site_fract_z
 _atom_site_occupancy
  Mg  Mg0  1  0.60854697  0.53044432  0.49210992  1
  Sn  Sn1  1  0.10880290  0.03053715  0.99211949  1
  Ru  Ru2  1  0.85807705  0.78053612  0.74209195  1
  Ru  Ru3  1  0.35820541  0.28071803  0.24219845  1
