# generated using pymatgen
data_MgU(PbO3)2
_symmetry_space_group_name_H-M   'P 1'
_cell_length_a   5.71737432
_cell_length_b   5.87024689
_cell_length_c   10.68799496
_cell_angle_alpha   75.01270294
_cell_angle_beta   75.62295532
_cell_angle_gamma   62.75918961
_symmetry_Int_Tables_number   1
_chemical_formula_structural   MgU(PbO3)2
_chemical_formula_sum   'Mg2 U2 Pb4 O12'
_cell_volume   304.53498591
_cell_formula_units_Z   2
loop_
 _symmetry_equiv_pos_site_id
 _symmetry_equiv_pos_as_xyz
  1  'x, y, z'
loop_
 _atom_site_type_symbol
 _atom_site_label
 _atom_site_symmetry_multiplicity
 _atom_site_fract_x
 _atom_site_fract_y
 _atom_site_fract_z
 _atom_site_occupancy
  Mg  Mg0  1  0.39477947  0.78450221  0.89456856  1
  Mg  Mg1  1  0.88857561  0.29347438  0.39472196  1
  U  U2  1  0.22718033  0.77265042  0.28522462  1
  U  U3  1  0.72645730  0.27208704  0.78477806  1
  Pb  Pb4  1  0.60734874  0.15489757  0.14492901  1
  Pb  Pb5  1  0.47525847  0.02671279  0.53500134  1
  Pb  Pb6  1  0.97773337  0.52549416  0.03530028  1
  Pb  Pb7  1  0.10603428  0.65417409  0.64379698  1
  O  O8  1  0.21733908  0.92601067  0.44961521  1
  O  O9  1  0.12468247  0.07063013  0.76412022  1
  O  O10  1  0.15457831  0.45280418  0.43171611  1
  O  O11  1  0.20080188  0.72246480  0.10620902  1
  O  O12  1  0.31396380  0.47502625  0.84093064  1
  O  O13  1  0.71781886  0.42616478  0.94935685  1
  O  O14  1  0.81256962  0.97683060  0.34131899  1
  O  O15  1  0.67819810  0.66507930  0.69798666  1
  O  O16  1  0.62554258  0.57128096  0.26433557  1
  O  O17  1  0.70074797  0.22291122  0.60638416  1
  O  O18  1  0.65392131  0.95419192  0.93036896  1
  O  O19  1  0.17763166  0.16494884  0.19781421  1
