# generated using pymatgen
data_MgZnNi2
_symmetry_space_group_name_H-M   'P 1'
_cell_length_a   4.15309191
_cell_length_b   4.17058086
_cell_length_c   4.17792368
_cell_angle_alpha   59.51991272
_cell_angle_beta   59.90501785
_cell_angle_gamma   59.96165848
_symmetry_Int_Tables_number   1
_chemical_formula_structural   MgZnNi2
_chemical_formula_sum   'Mg1 Zn1 Ni2'
_cell_volume   50.93046699
_cell_formula_units_Z   1
loop_
 _symmetry_equiv_pos_site_id
 _symmetry_equiv_pos_as_xyz
  1  'x, y, z'
loop_
 _atom_site_type_symbol
 _atom_site_label
 _atom_site_symmetry_multiplicity
 _atom_site_fract_x
 _atom_site_fract_y
 _atom_site_fract_z
 _atom_site_occupancy
  Mg  Mg0  1  0.60325128  0.74214488  0.62298423  1
  Zn  Zn1  1  0.10317620  0.24229597  0.12257594  1
  Ni  Ni2  1  0.35301951  0.49154529  0.37310100  1
  Ni  Ni3  1  0.85334909  0.99153805  0.87333238  1
