# generated using pymatgen
data_MgZrZn2
_symmetry_space_group_name_H-M   'P 1'
_cell_length_a   4.68788958
_cell_length_b   4.69733524
_cell_length_c   4.69805431
_cell_angle_alpha   59.99481583
_cell_angle_beta   60.05632019
_cell_angle_gamma   59.91134262
_symmetry_Int_Tables_number   1
_chemical_formula_structural   MgZrZn2
_chemical_formula_sum   'Mg1 Zr1 Zn2'
_cell_volume   73.13198894
_cell_formula_units_Z   1
loop_
 _symmetry_equiv_pos_site_id
 _symmetry_equiv_pos_as_xyz
  1  'x, y, z'
loop_
 _atom_site_type_symbol
 _atom_site_label
 _atom_site_symmetry_multiplicity
 _atom_site_fract_x
 _atom_site_fract_y
 _atom_site_fract_z
 _atom_site_occupancy
  Mg  Mg0  1  0.67157042  0.09373945  0.94829321  1
  Zr  Zr1  1  0.17216085  0.59391469  0.44785106  1
  Zn  Zn2  1  0.92189533  0.34421664  0.19809188  1
  Zn  Zn3  1  0.42187163  0.84398627  0.69773561  1
