# generated using pymatgen
data_Mn(InSe2)2
_symmetry_space_group_name_H-M   'P 1'
_cell_length_a   5.83315802
_cell_length_b   5.82409000
_cell_length_c   7.13059568
_cell_angle_alpha   113.98886871
_cell_angle_beta   114.11245728
_cell_angle_gamma   90.03221893
_symmetry_Int_Tables_number   1
_chemical_formula_structural   Mn(InSe2)2
_chemical_formula_sum   'Mn1 In2 Se4'
_cell_volume   197.93585353
_cell_formula_units_Z   1
loop_
 _symmetry_equiv_pos_site_id
 _symmetry_equiv_pos_as_xyz
  1  'x, y, z'
loop_
 _atom_site_type_symbol
 _atom_site_label
 _atom_site_symmetry_multiplicity
 _atom_site_fract_x
 _atom_site_fract_y
 _atom_site_fract_z
 _atom_site_occupancy
  Mn  Mn0  1  0.83457226  0.54829353  0.54961693  1
  In  In1  1  0.58345330  0.79737127  0.04929317  1
  In  In2  1  0.08360188  0.29861677  0.04901869  1
  Se  Se3  1  0.98576635  0.17131552  0.32389924  1
  Se  Se4  1  0.21100692  0.92412817  0.77747166  1
  Se  Se5  1  0.45432341  0.69624281  0.32351288  1
  Se  Se6  1  0.68767256  0.39994729  0.77799529  1
