# generated using pymatgen
data_Mn2F7
_symmetry_space_group_name_H-M   'P 1'
_cell_length_a   3.93180656
_cell_length_b   7.90050602
_cell_length_c   9.93848419
_cell_angle_alpha   104.20037842
_cell_angle_beta   90.36627960
_cell_angle_gamma   103.92232513
_symmetry_Int_Tables_number   1
_chemical_formula_structural   Mn2F7
_chemical_formula_sum   'Mn4 F14'
_cell_volume   289.79323663
_cell_formula_units_Z   2
loop_
 _symmetry_equiv_pos_site_id
 _symmetry_equiv_pos_as_xyz
  1  'x, y, z'
loop_
 _atom_site_type_symbol
 _atom_site_label
 _atom_site_symmetry_multiplicity
 _atom_site_fract_x
 _atom_site_fract_y
 _atom_site_fract_z
 _atom_site_occupancy
  Mn  Mn0  1  0.37635297  0.99246472  0.19809113  1
  Mn  Mn1  1  0.61279649  0.48771539  0.21412909  1
  Mn  Mn2  1  0.57839000  0.41225398  0.80606866  1
  Mn  Mn3  1  0.39323580  0.03609721  0.59519541  1
  F  F4  1  0.27379748  0.80281484  0.59188908  1
  F  F5  1  0.89578450  0.03970751  0.19037005  1
  F  F6  1  0.70179176  0.64507496  0.79771668  1
  F  F7  1  0.52507573  0.29888627  0.62193012  1
  F  F8  1  0.63493985  0.50814337  0.40269858  1
  F  F9  1  0.43950528  0.12645608  0.80259693  1
  F  F10  1  0.89383388  0.03369982  0.58547789  1
  F  F11  1  0.60802072  0.46918172  0.99971747  1
  F  F12  1  0.08391801  0.40897578  0.80501944  1
  F  F13  1  0.48692206  0.22973239  0.16960017  1
  F  F14  1  0.73997688  0.72234821  0.24327509  1
  F  F15  1  0.11871614  0.47785926  0.21142431  1
  F  F16  1  0.29000908  0.82982814  0.06567258  1
  F  F17  1  0.38228196  0.01860211  0.38570219  1
