# generated using pymatgen
data_Mn2OF3
_symmetry_space_group_name_H-M   'P 1'
_cell_length_a   4.82302427
_cell_length_b   5.77500772
_cell_length_c   5.83277655
_cell_angle_alpha   69.13150024
_cell_angle_beta   87.98370361
_cell_angle_gamma   88.92823029
_symmetry_Int_Tables_number   1
_chemical_formula_structural   Mn2OF3
_chemical_formula_sum   'Mn4 O2 F6'
_cell_volume   151.70571564
_cell_formula_units_Z   2
loop_
 _symmetry_equiv_pos_site_id
 _symmetry_equiv_pos_as_xyz
  1  'x, y, z'
loop_
 _atom_site_type_symbol
 _atom_site_label
 _atom_site_symmetry_multiplicity
 _atom_site_fract_x
 _atom_site_fract_y
 _atom_site_fract_z
 _atom_site_occupancy
  Mn  Mn0  1  0.31869683  0.58822381  0.16032837  1
  Mn  Mn1  1  0.35210964  0.06099596  0.66596240  1
  Mn  Mn2  1  0.89318931  0.58810002  0.66332394  1
  Mn  Mn3  1  0.85550910  0.06132476  0.17048313  1
  O  O4  1  0.06025953  0.72981185  0.33618537  1
  O  O5  1  0.16756661  0.73344624  0.83048487  1
  F  F6  1  0.06281981  0.23173772  0.80847323  1
  F  F7  1  0.56711286  0.42184517  0.52131474  1
  F  F8  1  0.16419092  0.23913273  0.30428290  1
  F  F9  1  0.66319108  0.42499599  0.01421950  1
  F  F10  1  0.56287605  0.92210174  0.02473865  1
  F  F11  1  0.66310012  0.92289180  0.52598673  1
