# generated using pymatgen
data_Mn2VGa
_symmetry_space_group_name_H-M   'P 1'
_cell_length_a   4.14362812
_cell_length_b   4.14816332
_cell_length_c   4.12850428
_cell_angle_alpha   59.27257156
_cell_angle_beta   59.46173477
_cell_angle_gamma   59.70898056
_symmetry_Int_Tables_number   1
_chemical_formula_structural   Mn2VGa
_chemical_formula_sum   'Mn2 V1 Ga1'
_cell_volume   49.58441247
_cell_formula_units_Z   1
loop_
 _symmetry_equiv_pos_site_id
 _symmetry_equiv_pos_as_xyz
  1  'x, y, z'
loop_
 _atom_site_type_symbol
 _atom_site_label
 _atom_site_symmetry_multiplicity
 _atom_site_fract_x
 _atom_site_fract_y
 _atom_site_fract_z
 _atom_site_occupancy
  Mn  Mn0  1  0.42740709  0.53776020  0.90556490  1
  Mn  Mn1  1  0.92748374  0.03736523  0.40546504  1
  V  V2  1  0.17752700  0.28778294  0.65527707  1
  Ga  Ga3  1  0.67737687  0.78802013  0.15514310  1
