# generated using pymatgen
data_Mn6BiPO12
_symmetry_space_group_name_H-M   'P 1'
_cell_length_a   6.64398813
_cell_length_b   6.64607954
_cell_length_c   6.72562599
_cell_angle_alpha   108.35334778
_cell_angle_beta   108.93174744
_cell_angle_gamma   110.18342590
_symmetry_Int_Tables_number   1
_chemical_formula_structural   Mn6BiPO12
_chemical_formula_sum   'Mn6 Bi1 P1 O12'
_cell_volume   231.19691343
_cell_formula_units_Z   1
loop_
 _symmetry_equiv_pos_site_id
 _symmetry_equiv_pos_as_xyz
  1  'x, y, z'
loop_
 _atom_site_type_symbol
 _atom_site_label
 _atom_site_symmetry_multiplicity
 _atom_site_fract_x
 _atom_site_fract_y
 _atom_site_fract_z
 _atom_site_occupancy
  Mn  Mn0  1  0.66237479  0.54969919  0.92096722  1
  Mn  Mn1  1  0.63955289  0.04582715  0.94595277  1
  Mn  Mn2  1  0.11655486  0.03789869  0.93757558  1
  Mn  Mn3  1  0.63105869  0.04318538  0.44875726  1
  Mn  Mn4  1  0.12712575  0.54474479  0.44478646  1
  Mn  Mn5  1  0.13241610  0.04499683  0.44589528  1
  Bi  Bi6  1  0.53363073  0.47106788  0.29358041  1
  P  P7  1  0.16117819  0.55124193  0.80025953  1
  O  O8  1  0.40466902  0.67967087  0.79635894  1
  O  O9  1  0.79963577  0.40415591  0.14261493  1
  O  O10  1  0.80315655  0.02733895  0.76541835  1
  O  O11  1  0.36339921  0.72410023  0.37063166  1
  O  O12  1  0.50826758  0.23501220  0.62852478  1
  O  O13  1  0.77177680  0.84615529  0.27367979  1
  O  O14  1  0.97607118  0.35673168  0.58537972  1
  O  O15  1  0.30007863  0.37525064  0.93104750  1
  O  O16  1  0.45923644  0.06786755  0.14347211  1
  O  O17  1  0.14803019  0.23181522  0.25612167  1
  O  O18  1  0.01352506  0.67646199  0.92378086  1
  O  O19  1  0.14047986  0.85523194  0.64266068  1
