# generated using pymatgen
data_Mn6O5F7
_symmetry_space_group_name_H-M   'P 1'
_cell_length_a   5.10462952
_cell_length_b   5.84728718
_cell_length_c   7.69691372
_cell_angle_alpha   90.74823761
_cell_angle_beta   89.57453156
_cell_angle_gamma   89.98388672
_symmetry_Int_Tables_number   1
_chemical_formula_structural   Mn6O5F7
_chemical_formula_sum   'Mn6 O5 F7'
_cell_volume   229.71334728
_cell_formula_units_Z   1
loop_
 _symmetry_equiv_pos_site_id
 _symmetry_equiv_pos_as_xyz
  1  'x, y, z'
loop_
 _atom_site_type_symbol
 _atom_site_label
 _atom_site_symmetry_multiplicity
 _atom_site_fract_x
 _atom_site_fract_y
 _atom_site_fract_z
 _atom_site_occupancy
  Mn  Mn0  1  0.92753232  0.36740687  0.73215944  1
  Mn  Mn1  1  0.52745879  0.54654688  0.39128825  1
  Mn  Mn2  1  0.11579836  0.73513091  0.06054553  1
  Mn  Mn3  1  0.70972866  0.84228116  0.73930228  1
  Mn  Mn4  1  0.02929858  0.04207760  0.38998255  1
  Mn  Mn5  1  0.42455900  0.23489727  0.08114047  1
  O  O6  1  0.90109354  0.65904385  0.88999736  1
  O  O7  1  0.86523747  0.06020584  0.60293365  1
  O  O8  1  0.32892674  0.52961326  0.17509387  1
  O  O9  1  0.73238504  0.55891651  0.59605408  1
  O  O10  1  0.20762470  0.01380312  0.18241836  1
  F  F11  1  0.24941261  0.29898319  0.84785783  1
  F  F12  1  0.23035599  0.33329150  0.49715093  1
  F  F13  1  0.83335912  0.76174992  0.27337995  1
  F  F14  1  0.34329391  0.83185011  0.49746716  1
  F  F15  1  0.39207155  0.83329469  0.87077463  1
  F  F16  1  0.73160374  0.15799338  0.91695881  1
  F  F17  1  0.72777337  0.26066318  0.28304735  1
