# generated using pymatgen
data_MnBe2Pt
_symmetry_space_group_name_H-M   'P 1'
_cell_length_a   3.99770188
_cell_length_b   3.99974728
_cell_length_c   3.98365283
_cell_angle_alpha   59.46575546
_cell_angle_beta   59.39875793
_cell_angle_gamma   59.81629562
_symmetry_Int_Tables_number   1
_chemical_formula_structural   MnBe2Pt
_chemical_formula_sum   'Mn1 Be2 Pt1'
_cell_volume   44.58948372
_cell_formula_units_Z   1
loop_
 _symmetry_equiv_pos_site_id
 _symmetry_equiv_pos_as_xyz
  1  'x, y, z'
loop_
 _atom_site_type_symbol
 _atom_site_label
 _atom_site_symmetry_multiplicity
 _atom_site_fract_x
 _atom_site_fract_y
 _atom_site_fract_z
 _atom_site_occupancy
  Mn  Mn0  1  0.23947030  0.13871239  0.29798117  1
  Be  Be1  1  0.73895657  0.63847566  0.79889029  1
  Be  Be2  1  0.98938364  0.88960093  0.04749976  1
  Pt  Pt3  1  0.48948890  0.38978896  0.54889315  1
