# generated using pymatgen
data_MnCuF6
_symmetry_space_group_name_H-M   'P 1'
_cell_length_a   5.06447458
_cell_length_b   5.06252337
_cell_length_c   5.33528090
_cell_angle_alpha   61.59734344
_cell_angle_beta   61.49662399
_cell_angle_gamma   60.18654633
_symmetry_Int_Tables_number   1
_chemical_formula_structural   MnCuF6
_chemical_formula_sum   'Mn1 Cu1 F6'
_cell_volume   99.07117930
_cell_formula_units_Z   1
loop_
 _symmetry_equiv_pos_site_id
 _symmetry_equiv_pos_as_xyz
  1  'x, y, z'
loop_
 _atom_site_type_symbol
 _atom_site_label
 _atom_site_symmetry_multiplicity
 _atom_site_fract_x
 _atom_site_fract_y
 _atom_site_fract_z
 _atom_site_occupancy
  Mn  Mn0  1  0.86706179  0.86516172  0.51640373  1
  Cu  Cu1  1  0.36757359  0.36432672  0.01612777  1
  F  F2  1  0.75604862  0.10468419  0.75648832  1
  F  F3  1  0.23363529  0.97606981  0.27575722  1
  F  F4  1  0.10715100  0.50397205  0.75822747  1
  F  F5  1  0.99163377  0.61930943  0.27462626  1
  F  F6  1  0.61750025  0.22585329  0.27383867  1
  F  F7  1  0.51043212  0.73750389  0.75848353  1
