# generated using pymatgen
data_MnCu2SnSe4
_symmetry_space_group_name_H-M   'P 1'
_cell_length_a   5.80096054
_cell_length_b   5.81347370
_cell_length_c   7.06774712
_cell_angle_alpha   114.16613770
_cell_angle_beta   114.38253021
_cell_angle_gamma   90.07231903
_symmetry_Int_Tables_number   1
_chemical_formula_structural   MnCu2SnSe4
_chemical_formula_sum   'Mn1 Cu2 Sn1 Se4'
_cell_volume   193.86445421
_cell_formula_units_Z   1
loop_
 _symmetry_equiv_pos_site_id
 _symmetry_equiv_pos_as_xyz
  1  'x, y, z'
loop_
 _atom_site_type_symbol
 _atom_site_label
 _atom_site_symmetry_multiplicity
 _atom_site_fract_x
 _atom_site_fract_y
 _atom_site_fract_z
 _atom_site_occupancy
  Mn  Mn0  1  0.98244929  0.81262845  0.88686574  1
  Cu  Cu1  1  0.73299438  0.06329171  0.38792992  1
  Cu  Cu2  1  0.48228458  0.31142575  0.88739228  1
  Sn  Sn3  1  0.23246558  0.56300688  0.38595533  1
  Se  Se4  1  0.82392949  0.16622780  0.12909766  1
  Se  Se5  1  0.09755468  0.96539468  0.64603430  1
  Se  Se6  1  0.61496192  0.42095023  0.64594388  1
  Se  Se7  1  0.37298146  0.69277495  0.12825501  1
