# generated using pymatgen
data_MnGePd2
_symmetry_space_group_name_H-M   'P 1'
_cell_length_a   4.39261627
_cell_length_b   4.39440918
_cell_length_c   4.40215969
_cell_angle_alpha   59.79962158
_cell_angle_beta   60.04611588
_cell_angle_gamma   59.80742264
_symmetry_Int_Tables_number   1
_chemical_formula_structural   MnGePd2
_chemical_formula_sum   'Mn1 Ge1 Pd2'
_cell_volume   59.92783934
_cell_formula_units_Z   1
loop_
 _symmetry_equiv_pos_site_id
 _symmetry_equiv_pos_as_xyz
  1  'x, y, z'
loop_
 _atom_site_type_symbol
 _atom_site_label
 _atom_site_symmetry_multiplicity
 _atom_site_fract_x
 _atom_site_fract_y
 _atom_site_fract_z
 _atom_site_occupancy
  Mn  Mn0  1  0.15034282  0.59690267  0.08085123  1
  Ge  Ge1  1  0.65037352  0.09657869  0.58150667  1
  Pd  Pd2  1  0.40050828  0.84717971  0.33033434  1
  Pd  Pd3  1  0.90036374  0.34722710  0.83004415  1
