# generated using pymatgen
data_MnIn2(SeS)2
_symmetry_space_group_name_H-M   'P 1'
_cell_length_a   5.70332241
_cell_length_b   5.71138430
_cell_length_c   6.94997025
_cell_angle_alpha   114.32792664
_cell_angle_beta   114.06672668
_cell_angle_gamma   90.04197693
_symmetry_Int_Tables_number   1
_chemical_formula_structural   MnIn2(SeS)2
_chemical_formula_sum   'Mn1 In2 Se2 S2'
_cell_volume   184.43869063
_cell_formula_units_Z   1
loop_
 _symmetry_equiv_pos_site_id
 _symmetry_equiv_pos_as_xyz
  1  'x, y, z'
loop_
 _atom_site_type_symbol
 _atom_site_label
 _atom_site_symmetry_multiplicity
 _atom_site_fract_x
 _atom_site_fract_y
 _atom_site_fract_z
 _atom_site_occupancy
  Mn  Mn0  1  0.98706710  0.48287317  0.96013731  1
  In  In1  1  0.71997613  0.72527534  0.46091211  1
  In  In2  1  0.25122583  0.22199553  0.46091387  1
  Se  Se3  1  0.83772385  0.32070798  0.19362983  1
  Se  Se4  1  0.13545975  0.09096362  0.73617595  1
  S  S5  1  0.36249518  0.84387928  0.19597577  1
  S  S6  1  0.61544067  0.61037433  0.73006487  1
