# generated using pymatgen
data_MnOF
_symmetry_space_group_name_H-M   'P 1'
_cell_length_a   4.72326469
_cell_length_b   5.13549328
_cell_length_c   5.78911257
_cell_angle_alpha   89.92456818
_cell_angle_beta   89.46974945
_cell_angle_gamma   90.75130463
_symmetry_Int_Tables_number   1
_chemical_formula_structural   MnOF
_chemical_formula_sum   'Mn4 O4 F4'
_cell_volume   140.40418668
_cell_formula_units_Z   4
loop_
 _symmetry_equiv_pos_site_id
 _symmetry_equiv_pos_as_xyz
  1  'x, y, z'
loop_
 _atom_site_type_symbol
 _atom_site_label
 _atom_site_symmetry_multiplicity
 _atom_site_fract_x
 _atom_site_fract_y
 _atom_site_fract_z
 _atom_site_occupancy
  Mn  Mn0  1  0.48621249  0.83583289  0.66586733  1
  Mn  Mn1  1  0.00902123  0.36269021  0.82818341  1
  Mn  Mn2  1  0.03693802  0.83579481  0.16551608  1
  Mn  Mn3  1  0.49785045  0.36006001  0.39582661  1
  O  O4  1  0.28486359  0.16499639  0.63235044  1
  O  O5  1  0.29537520  0.66938764  0.39335912  1
  O  O6  1  0.72178173  0.52601177  0.63570625  1
  O  O7  1  0.22169363  0.67013747  0.89406389  1
  F  F8  1  0.24600373  0.17549013  0.13862649  1
  F  F9  1  0.78789222  0.52430141  0.13434657  1
  F  F10  1  0.77529722  0.02687692  0.89604443  1
  F  F11  1  0.74545705  0.02871323  0.38513270  1
