# generated using pymatgen
data_MnPbO3
_symmetry_space_group_name_H-M   'P 1'
_cell_length_a   3.69862461
_cell_length_b   7.04140186
_cell_length_c   11.96987915
_cell_angle_alpha   91.23774719
_cell_angle_beta   89.80773163
_cell_angle_gamma   90.04031372
_symmetry_Int_Tables_number   1
_chemical_formula_structural   MnPbO3
_chemical_formula_sum   'Mn4 Pb4 O12'
_cell_volume   311.66301948
_cell_formula_units_Z   4
loop_
 _symmetry_equiv_pos_site_id
 _symmetry_equiv_pos_as_xyz
  1  'x, y, z'
loop_
 _atom_site_type_symbol
 _atom_site_label
 _atom_site_symmetry_multiplicity
 _atom_site_fract_x
 _atom_site_fract_y
 _atom_site_fract_z
 _atom_site_occupancy
  Mn  Mn0  1  0.07250942  0.08254314  0.67865443  1
  Mn  Mn1  1  0.07191273  0.58370519  0.01156530  1
  Mn  Mn2  1  0.57249844  0.86848927  0.51109892  1
  Mn  Mn3  1  0.57202303  0.36954123  0.17879646  1
  Pb  Pb4  1  0.57278645  0.02102300  0.95025867  1
  Pb  Pb5  1  0.07234921  0.93665284  0.23719427  1
  Pb  Pb6  1  0.57173318  0.52335572  0.73699021  1
  Pb  Pb7  1  0.07242230  0.44530302  0.45071766  1
  O  O8  1  0.07251468  0.43616322  0.17645404  1
  O  O9  1  0.57201201  0.12854739  0.13734962  1
  O  O10  1  0.07206709  0.57465851  0.85501170  1
  O  O11  1  0.07166867  0.93369222  0.53443539  1
  O  O12  1  0.07156632  0.82874382  0.04374959  1
  O  O13  1  0.57211375  0.33613440  0.33661860  1
  O  O14  1  0.57227606  0.83388931  0.34965351  1
  O  O15  1  0.57188553  0.62828171  0.54594016  1
  O  O16  1  0.07212336  0.32333264  0.63745201  1
  O  O17  1  0.07190328  0.07592451  0.83630264  1
  O  O18  1  0.57223278  0.51175123  0.03523065  1
  O  O19  1  0.57243299  0.01132821  0.67458785  1
