# generated using pymatgen
data_MnPd3
_symmetry_space_group_name_H-M   'P 1'
_cell_length_a   4.48040915
_cell_length_b   5.61150503
_cell_length_c   5.59322262
_cell_angle_alpha   119.95880890
_cell_angle_beta   89.86568451
_cell_angle_gamma   90.14099884
_symmetry_Int_Tables_number   1
_chemical_formula_structural   MnPd3
_chemical_formula_sum   'Mn2 Pd6'
_cell_volume   121.83391673
_cell_formula_units_Z   2
loop_
 _symmetry_equiv_pos_site_id
 _symmetry_equiv_pos_as_xyz
  1  'x, y, z'
loop_
 _atom_site_type_symbol
 _atom_site_label
 _atom_site_symmetry_multiplicity
 _atom_site_fract_x
 _atom_site_fract_y
 _atom_site_fract_z
 _atom_site_occupancy
  Mn  Mn0  1  0.58540010  0.97002155  0.68052202  1
  Mn  Mn1  1  0.08580448  0.63669550  0.01328524  1
  Pd  Pd2  1  0.58573842  0.96532071  0.17860948  1
  Pd  Pd3  1  0.08624196  0.64387262  0.51753539  1
  Pd  Pd4  1  0.08586894  0.13407542  0.00934628  1
  Pd  Pd5  1  0.08585393  0.13402469  0.51761305  1
  Pd  Pd6  1  0.58584720  0.47235763  0.68603569  1
  Pd  Pd7  1  0.58596265  0.47265148  0.17774253  1
