# generated using pymatgen
data_MnVO4
_symmetry_space_group_name_H-M   'P 1'
_cell_length_a   4.58589983
_cell_length_b   5.41336203
_cell_length_c   5.40698385
_cell_angle_alpha   66.82955933
_cell_angle_beta   88.09909058
_cell_angle_gamma   89.27485657
_symmetry_Int_Tables_number   1
_chemical_formula_structural   MnVO4
_chemical_formula_sum   'Mn2 V2 O8'
_cell_volume   123.33406119
_cell_formula_units_Z   2
loop_
 _symmetry_equiv_pos_site_id
 _symmetry_equiv_pos_as_xyz
  1  'x, y, z'
loop_
 _atom_site_type_symbol
 _atom_site_label
 _atom_site_symmetry_multiplicity
 _atom_site_fract_x
 _atom_site_fract_y
 _atom_site_fract_z
 _atom_site_occupancy
  Mn  Mn0  1  0.83274180  0.28044102  0.50669771  1
  Mn  Mn1  1  0.83328384  0.77919352  0.00663938  1
  V  V2  1  0.33281794  0.27865562  0.00614536  1
  V  V3  1  0.33258095  0.78040653  0.50647932  1
  O  O4  1  0.63058531  0.63193411  0.35400227  1
  O  O5  1  0.03505556  0.43489698  0.15541920  1
  O  O6  1  0.53275377  0.63108402  0.85370409  1
  O  O7  1  0.13854745  0.43550164  0.65559137  1
  O  O8  1  0.53294808  0.13168730  0.35431603  1
  O  O9  1  0.13758941  0.93585026  0.15604477  1
  O  O10  1  0.62895113  0.13175936  0.85375077  1
  O  O11  1  0.03475608  0.93698496  0.65554792  1
