# generated using pymatgen
data_MnZnO3
_symmetry_space_group_name_H-M   'P 1'
_cell_length_a   3.29948974
_cell_length_b   5.24139738
_cell_length_c   6.38898754
_cell_angle_alpha   71.45716095
_cell_angle_beta   90.49179077
_cell_angle_gamma   90.03122711
_symmetry_Int_Tables_number   1
_chemical_formula_structural   MnZnO3
_chemical_formula_sum   'Mn2 Zn2 O6'
_cell_volume   104.75060982
_cell_formula_units_Z   2
loop_
 _symmetry_equiv_pos_site_id
 _symmetry_equiv_pos_as_xyz
  1  'x, y, z'
loop_
 _atom_site_type_symbol
 _atom_site_label
 _atom_site_symmetry_multiplicity
 _atom_site_fract_x
 _atom_site_fract_y
 _atom_site_fract_z
 _atom_site_occupancy
  Mn  Mn0  1  0.09916598  0.50830179  0.34047702  1
  Mn  Mn1  1  0.59923434  0.00955805  0.34008732  1
  Zn  Zn2  1  0.59889603  0.55884391  0.84042895  1
  Zn  Zn3  1  0.09931889  0.05848603  0.84009606  1
  O  O4  1  0.09870590  0.15093052  0.33961064  1
  O  O5  1  0.59864086  0.94415754  0.65956551  1
  O  O6  1  0.09851298  0.44433528  0.66017246  1
  O  O7  1  0.59845877  0.65316713  0.34003085  1
  O  O8  1  0.09882238  0.65823001  0.01583175  1
  O  O9  1  0.59833133  0.16099732  0.01655195  1
