# generated using pymatgen
data_Mo2As3P
_symmetry_space_group_name_H-M   'P 1'
_cell_length_a   3.21208262
_cell_length_b   5.26988220
_cell_length_c   6.31196404
_cell_angle_alpha   80.50748444
_cell_angle_beta   74.18790436
_cell_angle_gamma   71.57018280
_symmetry_Int_Tables_number   1
_chemical_formula_structural   Mo2As3P
_chemical_formula_sum   'Mo2 As3 P1'
_cell_volume   97.16516623
_cell_formula_units_Z   1
loop_
 _symmetry_equiv_pos_site_id
 _symmetry_equiv_pos_as_xyz
  1  'x, y, z'
loop_
 _atom_site_type_symbol
 _atom_site_label
 _atom_site_symmetry_multiplicity
 _atom_site_fract_x
 _atom_site_fract_y
 _atom_site_fract_z
 _atom_site_occupancy
  Mo  Mo0  1  0.52145636  0.06861210  0.39945126  1
  Mo  Mo1  1  0.49281725  0.63172442  0.85104388  1
  As  As2  1  0.02300489  0.32874873  0.11106830  1
  As  As3  1  0.17806615  0.65859252  0.48383519  1
  As  As4  1  0.82222778  0.17253117  0.69583577  1
  P  P5  1  0.78417772  0.85871905  0.05751138  1
