# generated using pymatgen
data_Mo8P5
_symmetry_space_group_name_H-M   'P 1'
_cell_length_a   3.27454615
_cell_length_b   6.42227364
_cell_length_c   9.07682705
_cell_angle_alpha   90.77252960
_cell_angle_beta   90.17876434
_cell_angle_gamma   89.97110748
_symmetry_Int_Tables_number   1
_chemical_formula_structural   Mo8P5
_chemical_formula_sum   'Mo8 P5'
_cell_volume   190.86765741
_cell_formula_units_Z   1
loop_
 _symmetry_equiv_pos_site_id
 _symmetry_equiv_pos_as_xyz
  1  'x, y, z'
loop_
 _atom_site_type_symbol
 _atom_site_label
 _atom_site_symmetry_multiplicity
 _atom_site_fract_x
 _atom_site_fract_y
 _atom_site_fract_z
 _atom_site_occupancy
  Mo  Mo0  1  0.61533535  0.95875835  0.54043663  1
  Mo  Mo1  1  0.11567270  0.62371397  0.65891445  1
  Mo  Mo2  1  0.61529082  0.45677474  0.14519399  1
  Mo  Mo3  1  0.61527443  0.27967721  0.80370241  1
  Mo  Mo4  1  0.11577026  0.77797121  0.27635339  1
  Mo  Mo5  1  0.11526341  0.28251189  0.34813011  1
  Mo  Mo6  1  0.61602485  0.78330773  0.94166410  1
  Mo  Mo7  1  0.11570344  0.12355150  0.04104786  1
  P  P8  1  0.11518167  0.95760095  0.77895135  1
  P  P9  1  0.11487352  0.25239316  0.59715432  1
  P  P10  1  0.61503506  0.04189349  0.24028443  1
  P  P11  1  0.11546369  0.50135148  0.94192392  1
  P  P12  1  0.61494267  0.58317965  0.43295226  1
