# generated using pymatgen
data_MoH4O5
_symmetry_space_group_name_H-M   'P 1'
_cell_length_a   5.46097088
_cell_length_b   6.34091473
_cell_length_c   7.43589211
_cell_angle_alpha   71.13225555
_cell_angle_beta   69.32765198
_cell_angle_gamma   66.88283539
_symmetry_Int_Tables_number   1
_chemical_formula_structural   MoH4O5
_chemical_formula_sum   'Mo2 H8 O10'
_cell_volume   216.39539369
_cell_formula_units_Z   2
loop_
 _symmetry_equiv_pos_site_id
 _symmetry_equiv_pos_as_xyz
  1  'x, y, z'
loop_
 _atom_site_type_symbol
 _atom_site_label
 _atom_site_symmetry_multiplicity
 _atom_site_fract_x
 _atom_site_fract_y
 _atom_site_fract_z
 _atom_site_occupancy
  Mo  Mo0  1  0.45849997  0.30408576  0.09221914  1
  Mo  Mo1  1  0.16862097  0.01769397  0.89171302  1
  H  H2  1  0.31044778  0.14897713  0.48427185  1
  H  H3  1  0.70779723  0.51709491  0.36070076  1
  H  H4  1  0.95934081  0.60411888  0.08042900  1
  H  H5  1  0.05762617  0.89984655  0.50752962  1
  H  H6  1  0.58510381  0.42826495  0.59279644  1
  H  H7  1  0.71142638  0.82649076  0.69947410  1
  H  H8  1  0.60353458  0.71424145  0.96253181  1
  H  H9  1  0.83605355  0.66279012  0.49917504  1
  O  O10  1  0.15030515  0.98664534  0.63783115  1
  O  O11  1  0.65988010  0.50546646  0.13020647  1
  O  O12  1  0.56743944  0.83432174  0.82083350  1
  O  O13  1  0.16225636  0.63090426  0.04154233  1
  O  O14  1  0.27288041  0.32413441  0.77955955  1
  O  O15  1  0.78377658  0.13816704  0.96947455  1
  O  O16  1  0.24247967  0.06801604  0.12345377  1
  O  O17  1  0.92746729  0.77527803  0.50731272  1
  O  O18  1  0.41325414  0.19748884  0.34266770  1
  O  O19  1  0.69090098  0.51278549  0.49961764  1
