# generated using pymatgen
data_MoPO5
_symmetry_space_group_name_H-M   'P 1'
_cell_length_a   4.60954618
_cell_length_b   5.79768705
_cell_length_c   7.03586721
_cell_angle_alpha   96.29747009
_cell_angle_beta   89.97487640
_cell_angle_gamma   90.30594635
_symmetry_Int_Tables_number   1
_chemical_formula_structural   MoPO5
_chemical_formula_sum   'Mo2 P2 O10'
_cell_volume   186.89419826
_cell_formula_units_Z   2
loop_
 _symmetry_equiv_pos_site_id
 _symmetry_equiv_pos_as_xyz
  1  'x, y, z'
loop_
 _atom_site_type_symbol
 _atom_site_label
 _atom_site_symmetry_multiplicity
 _atom_site_fract_x
 _atom_site_fract_y
 _atom_site_fract_z
 _atom_site_occupancy
  Mo  Mo0  1  0.24821088  0.69881320  0.78662944  1
  Mo  Mo1  1  0.66249073  0.19618884  0.28748766  1
  P  P2  1  0.79996043  0.61748219  0.09794249  1
  P  P3  1  0.13590993  0.12361251  0.58923721  1
  O  O4  1  0.18593574  0.02851502  0.83284408  1
  O  O5  1  0.72126406  0.88845932  0.16979323  1
  O  O6  1  0.21844013  0.85117680  0.54942495  1
  O  O7  1  0.73832631  0.52972037  0.33223072  1
  O  O8  1  0.21700610  0.38631564  0.66999590  1
  O  O9  1  0.65966004  0.67917299  0.85109961  1
  O  O10  1  0.13688232  0.63050604  0.04138961  1
  O  O11  1  0.70275831  0.34901926  0.04719597  1
  O  O12  1  0.28530851  0.17357078  0.36353561  1
  O  O13  1  0.81775314  0.12627649  0.53953594  1
