# generated using pymatgen
data_MoW2(SeS2)2
_symmetry_space_group_name_H-M   'P 1'
_cell_length_a   3.15719128
_cell_length_b   3.13896060
_cell_length_c   30.54862595
_cell_angle_alpha   89.80111694
_cell_angle_beta   89.94264221
_cell_angle_gamma   120.74681091
_symmetry_Int_Tables_number   1
_chemical_formula_structural   MoW2(SeS2)2
_chemical_formula_sum   'Mo1 W2 Se2 S4'
_cell_volume   260.18755963
_cell_formula_units_Z   1
loop_
 _symmetry_equiv_pos_site_id
 _symmetry_equiv_pos_as_xyz
  1  'x, y, z'
loop_
 _atom_site_type_symbol
 _atom_site_label
 _atom_site_symmetry_multiplicity
 _atom_site_fract_x
 _atom_site_fract_y
 _atom_site_fract_z
 _atom_site_occupancy
  Mo  Mo0  1  0.55167967  0.76949161  0.20582190  1
  W  W1  1  0.88528049  0.43580234  0.01395476  1
  W  W2  1  0.55155170  0.76840562  0.81558144  1
  Se  Se3  1  0.88522506  0.43560204  0.86567253  1
  Se  Se4  1  0.88439703  0.43558955  0.76084709  1
  S  S5  1  0.55149555  0.76872623  0.32500523  1
  S  S6  1  0.55109012  0.76903701  0.96568727  1
  S  S7  1  0.88484395  0.43582866  0.19029316  1
  S  S8  1  0.55277663  0.76877493  0.06164686  1
