# generated using pymatgen
data_MoWS4
_symmetry_space_group_name_H-M   'P 1'
_cell_length_a   3.07717323
_cell_length_b   3.02720761
_cell_length_c   34.14509583
_cell_angle_alpha   89.98979950
_cell_angle_beta   90.19983673
_cell_angle_gamma   125.16098022
_symmetry_Int_Tables_number   1
_chemical_formula_structural   MoWS4
_chemical_formula_sum   'Mo2 W2 S8'
_cell_volume   260.03171514
_cell_formula_units_Z   2
loop_
 _symmetry_equiv_pos_site_id
 _symmetry_equiv_pos_as_xyz
  1  'x, y, z'
loop_
 _atom_site_type_symbol
 _atom_site_label
 _atom_site_symmetry_multiplicity
 _atom_site_fract_x
 _atom_site_fract_y
 _atom_site_fract_z
 _atom_site_occupancy
  Mo  Mo0  1  0.78610218  0.39755541  0.43762347  1
  Mo  Mo1  1  0.78610247  0.39708671  0.81397152  1
  W  W2  1  0.12069739  0.06382012  0.00281497  1
  W  W3  1  0.12027457  0.06396249  0.62791312  1
  S  S4  1  0.78623736  0.39734256  0.95907319  1
  S  S5  1  0.12032136  0.06365043  0.39133325  1
  S  S6  1  0.78636718  0.39715716  0.58056092  1
  S  S7  1  0.78708041  0.39716849  0.04679334  1
  S  S8  1  0.78613114  0.39680347  0.66751146  1
  S  S9  1  0.12035069  0.06360684  0.85594338  1
  S  S10  1  0.12064707  0.06394519  0.48153672  1
  S  S11  1  0.12042454  0.06363344  0.76843315  1
