# generated using pymatgen
data_MoWSeS3
_symmetry_space_group_name_H-M   'P 1'
_cell_length_a   3.26479578
_cell_length_b   3.25215054
_cell_length_c   33.20127869
_cell_angle_alpha   89.21556854
_cell_angle_beta   90.36051941
_cell_angle_gamma   117.81172943
_symmetry_Int_Tables_number   1
_chemical_formula_structural   MoWSeS3
_chemical_formula_sum   'Mo2 W2 Se2 S6'
_cell_volume   311.76795327
_cell_formula_units_Z   2
loop_
 _symmetry_equiv_pos_site_id
 _symmetry_equiv_pos_as_xyz
  1  'x, y, z'
loop_
 _atom_site_type_symbol
 _atom_site_label
 _atom_site_symmetry_multiplicity
 _atom_site_fract_x
 _atom_site_fract_y
 _atom_site_fract_z
 _atom_site_occupancy
  Mo  Mo0  1  0.31148180  0.77960885  0.34283909  1
  Mo  Mo1  1  0.31193584  0.77915144  0.96421486  1
  W  W2  1  0.64533734  0.44564992  0.15026216  1
  W  W3  1  0.64553100  0.44587716  0.53075159  1
  Se  Se4  1  0.64555955  0.44607422  0.29414949  1
  Se  Se5  1  0.31172797  0.77922308  0.19273777  1
  S  S6  1  0.64537662  0.44621420  0.00476594  1
  S  S7  1  0.64521074  0.44576079  0.38458127  1
  S  S8  1  0.31157801  0.77932984  0.10511885  1
  S  S9  1  0.31177327  0.77908033  0.48657519  1
  S  S10  1  0.64513654  0.44594282  0.91648209  1
  S  S11  1  0.31151375  0.77920997  0.57276225  1
