# generated using pymatgen
data_Na2CuO2
_symmetry_space_group_name_H-M   'P 1'
_cell_length_a   3.28518319
_cell_length_b   6.36172295
_cell_length_c   7.32381010
_cell_angle_alpha   75.37894440
_cell_angle_beta   77.12543488
_cell_angle_gamma   75.04627991
_symmetry_Int_Tables_number   1
_chemical_formula_structural   Na2CuO2
_chemical_formula_sum   'Na4 Cu2 O4'
_cell_volume   141.04083545
_cell_formula_units_Z   2
loop_
 _symmetry_equiv_pos_site_id
 _symmetry_equiv_pos_as_xyz
  1  'x, y, z'
loop_
 _atom_site_type_symbol
 _atom_site_label
 _atom_site_symmetry_multiplicity
 _atom_site_fract_x
 _atom_site_fract_y
 _atom_site_fract_z
 _atom_site_occupancy
  Na  Na0  1  0.52726448  0.06150267  0.53237009  1
  Na  Na1  1  0.03043995  0.37459013  0.20666479  1
  Na  Na2  1  0.30402097  0.81131339  0.23522559  1
  Na  Na3  1  0.77513832  0.53131163  0.57640135  1
  Cu  Cu4  1  0.05182753  0.72474366  0.84085536  1
  Cu  Cu5  1  0.76934767  0.19312219  0.91185671  1
  O  O6  1  0.42852595  0.42584708  0.37095150  1
  O  O7  1  0.86050355  0.89539093  0.02735246  1
  O  O8  1  0.12991685  0.81864041  0.58584261  1
  O  O9  1  0.18818666  0.39431131  0.87116492  1
