# generated using pymatgen
data_Na2SbAu
_symmetry_space_group_name_H-M   'P 1'
_cell_length_a   5.21627712
_cell_length_b   5.79201365
_cell_length_c   6.67209291
_cell_angle_alpha   89.91503906
_cell_angle_beta   89.88024902
_cell_angle_gamma   90.00592804
_symmetry_Int_Tables_number   1
_chemical_formula_structural   Na2SbAu
_chemical_formula_sum   'Na4 Sb2 Au2'
_cell_volume   201.58160061
_cell_formula_units_Z   2
loop_
 _symmetry_equiv_pos_site_id
 _symmetry_equiv_pos_as_xyz
  1  'x, y, z'
loop_
 _atom_site_type_symbol
 _atom_site_label
 _atom_site_symmetry_multiplicity
 _atom_site_fract_x
 _atom_site_fract_y
 _atom_site_fract_z
 _atom_site_occupancy
  Na  Na0  1  0.01675935  0.34632039  0.36965308  1
  Na  Na1  1  0.51728934  0.56582302  0.12346782  1
  Na  Na2  1  0.01703122  0.84712523  0.62381184  1
  Na  Na3  1  0.51647431  0.06607790  0.86980724  1
  Sb  Sb4  1  0.51665431  0.02564355  0.37043101  1
  Sb  Sb5  1  0.01676756  0.39894313  0.86838645  1
  Au  Au6  1  0.01613068  0.89285105  0.12318116  1
  Au  Au7  1  0.51653057  0.50728250  0.62406951  1
