# generated using pymatgen
data_Na2Se
_symmetry_space_group_name_H-M   'P 1'
_cell_length_a   4.91029406
_cell_length_b   4.90630913
_cell_length_c   4.90230560
_cell_angle_alpha   59.70101547
_cell_angle_beta   59.82899094
_cell_angle_gamma   59.82902145
_symmetry_Int_Tables_number   1
_chemical_formula_structural   Na2Se
_chemical_formula_sum   'Na2 Se1'
_cell_volume   83.10642823
_cell_formula_units_Z   1
loop_
 _symmetry_equiv_pos_site_id
 _symmetry_equiv_pos_as_xyz
  1  'x, y, z'
loop_
 _atom_site_type_symbol
 _atom_site_label
 _atom_site_symmetry_multiplicity
 _atom_site_fract_x
 _atom_site_fract_y
 _atom_site_fract_z
 _atom_site_occupancy
  Na  Na0  1  0.18815237  0.69912505  0.02411601  1
  Na  Na1  1  0.68864238  0.19952831  0.52430516  1
  Se  Se2  1  0.43808275  0.94885838  0.27477014  1
