# generated using pymatgen
data_Na2UF8
_symmetry_space_group_name_H-M   'P 1'
_cell_length_a   5.46745443
_cell_length_b   5.49225807
_cell_length_c   6.64826441
_cell_angle_alpha   114.46517944
_cell_angle_beta   114.35884857
_cell_angle_gamma   89.91941833
_symmetry_Int_Tables_number   1
_chemical_formula_structural   Na2UF8
_chemical_formula_sum   'Na2 U1 F8'
_cell_volume   162.04590771
_cell_formula_units_Z   1
loop_
 _symmetry_equiv_pos_site_id
 _symmetry_equiv_pos_as_xyz
  1  'x, y, z'
loop_
 _atom_site_type_symbol
 _atom_site_label
 _atom_site_symmetry_multiplicity
 _atom_site_fract_x
 _atom_site_fract_y
 _atom_site_fract_z
 _atom_site_occupancy
  Na  Na0  1  0.94380224  0.97698957  0.99345142  1
  Na  Na1  1  0.44381389  0.47503710  0.99273390  1
  U  U2  1  0.19322780  0.72712922  0.49382278  1
  F  F3  1  0.84665155  0.83343428  0.25396612  1
  F  F4  1  0.08100817  0.07115876  0.72537494  1
  F  F5  1  0.54107505  0.61634505  0.72513068  1
  F  F6  1  0.30198064  0.83470690  0.25489408  1
  F  F7  1  0.08036917  0.61523825  0.72473514  1
  F  F8  1  0.84726322  0.38077563  0.25482744  1
  F  F9  1  0.54125363  0.07190784  0.72570884  1
  F  F10  1  0.30142024  0.38071924  0.25463128  1
