# generated using pymatgen
data_Na3Au
_symmetry_space_group_name_H-M   'P 1'
_cell_length_a   5.78189611
_cell_length_b   5.82210588
_cell_length_c   5.82687712
_cell_angle_alpha   89.80318451
_cell_angle_beta   89.79156494
_cell_angle_gamma   90.05699921
_symmetry_Int_Tables_number   1
_chemical_formula_structural   Na3Au
_chemical_formula_sum   'Na6 Au2'
_cell_volume   196.14651070
_cell_formula_units_Z   2
loop_
 _symmetry_equiv_pos_site_id
 _symmetry_equiv_pos_as_xyz
  1  'x, y, z'
loop_
 _atom_site_type_symbol
 _atom_site_label
 _atom_site_symmetry_multiplicity
 _atom_site_fract_x
 _atom_site_fract_y
 _atom_site_fract_z
 _atom_site_occupancy
  Na  Na0  1  0.07101007  0.72631568  0.04073725  1
  Na  Na1  1  0.57066125  0.47460157  0.79024911  1
  Na  Na2  1  0.82094562  0.97492564  0.54045290  1
  Na  Na3  1  0.57106715  0.47517332  0.29007500  1
  Na  Na4  1  0.32084590  0.97481263  0.54090172  1
  Na  Na5  1  0.07071665  0.22450098  0.04087104  1
  Au  Au6  1  0.07124349  0.47463977  0.54096669  1
  Au  Au7  1  0.57093769  0.97433025  0.04031049  1
