# generated using pymatgen
data_Na3ErTi2Nb2O12
_symmetry_space_group_name_H-M   'P 1'
_cell_length_a   5.46736526
_cell_length_b   5.65087271
_cell_length_c   7.80380201
_cell_angle_alpha   89.83692169
_cell_angle_beta   89.88993073
_cell_angle_gamma   89.94489288
_symmetry_Int_Tables_number   1
_chemical_formula_structural   Na3ErTi2Nb2O12
_chemical_formula_sum   'Na3 Er1 Ti2 Nb2 O12'
_cell_volume   241.09993714
_cell_formula_units_Z   1
loop_
 _symmetry_equiv_pos_site_id
 _symmetry_equiv_pos_as_xyz
  1  'x, y, z'
loop_
 _atom_site_type_symbol
 _atom_site_label
 _atom_site_symmetry_multiplicity
 _atom_site_fract_x
 _atom_site_fract_y
 _atom_site_fract_z
 _atom_site_occupancy
  Na  Na0  1  0.09581735  0.48164129  0.97833723  1
  Na  Na1  1  0.10486946  0.41921419  0.47893506  1
  Na  Na2  1  0.60340196  0.97985011  0.97858274  1
  Er  Er3  1  0.58380735  0.88107646  0.47831777  1
  Ti  Ti4  1  0.61480153  0.42587978  0.21807089  1
  Ti  Ti5  1  0.61367673  0.43562913  0.73629701  1
  Nb  Nb6  1  0.09233703  0.95193577  0.73480499  1
  Nb  Nb7  1  0.09226126  0.95171320  0.22941485  1
  O  O8  1  0.98681927  0.98648113  0.47882774  1
  O  O9  1  0.17138159  0.92888129  0.97984052  1
  O  O10  1  0.31358990  0.68502659  0.67316461  1
  O  O11  1  0.52317059  0.42962804  0.97914588  1
  O  O12  1  0.79287887  0.75257605  0.20646401  1
  O  O13  1  0.89748418  0.25094414  0.18833998  1
  O  O14  1  0.79306632  0.75123531  0.75509912  1
  O  O15  1  0.89714593  0.25155929  0.76174003  1
  O  O16  1  0.40246141  0.16137807  0.28549704  1
  O  O17  1  0.67107666  0.48731482  0.47928476  1
  O  O18  1  0.31177330  0.68854803  0.28960729  1
  O  O19  1  0.40219292  0.16051127  0.67441356  1
