# generated using pymatgen
data_Na3Mn5O12
_symmetry_space_group_name_H-M   'P 1'
_cell_length_a   6.42426777
_cell_length_b   6.40752411
_cell_length_c   6.56254148
_cell_angle_alpha   108.87940216
_cell_angle_beta   108.83975220
_cell_angle_gamma   109.82611847
_symmetry_Int_Tables_number   1
_chemical_formula_structural   Na3Mn5O12
_chemical_formula_sum   'Na3 Mn5 O12'
_cell_volume   210.13648919
_cell_formula_units_Z   1
loop_
 _symmetry_equiv_pos_site_id
 _symmetry_equiv_pos_as_xyz
  1  'x, y, z'
loop_
 _atom_site_type_symbol
 _atom_site_label
 _atom_site_symmetry_multiplicity
 _atom_site_fract_x
 _atom_site_fract_y
 _atom_site_fract_z
 _atom_site_occupancy
  Na  Na0  1  0.72824627  0.90956187  0.60835701  1
  Na  Na1  1  0.72802889  0.40943238  0.60845131  1
  Na  Na2  1  0.72783172  0.90941280  0.10850669  1
  Mn  Mn3  1  0.22779828  0.41020247  0.60783488  1
  Mn  Mn4  1  0.22793679  0.40933913  0.10790443  1
  Mn  Mn5  1  0.22764070  0.90911305  0.60883075  1
  Mn  Mn6  1  0.72745967  0.40976825  0.10763739  1
  Mn  Mn7  1  0.22753577  0.90920907  0.10918699  1
  O  O8  1  0.98496085  0.22627899  0.60769784  1
  O  O9  1  0.07093615  0.06030063  0.95741218  1
  O  O10  1  0.42381892  0.42966333  0.93539077  1
  O  O11  1  0.53447855  0.21119803  0.21525255  1
  O  O12  1  0.87811130  0.70834577  0.40283114  1
  O  O13  1  0.92355937  0.61003220  0.99893326  1
  O  O14  1  0.22822189  0.73304760  0.79928309  1
  O  O15  1  0.03511247  0.38334131  0.26857120  1
  O  O16  1  0.39485708  0.76469052  0.26253432  1
  O  O17  1  0.57976836  0.11405976  0.80498260  1
  O  O18  1  0.22576267  0.07693511  0.42228016  1
  O  O19  1  0.49304429  0.60348433  0.62334055  1
