# generated using pymatgen
data_Na4WO4
_symmetry_space_group_name_H-M   'P 1'
_cell_length_a   4.77564430
_cell_length_b   5.69613743
_cell_length_c   5.73493862
_cell_angle_alpha   78.25170135
_cell_angle_beta   66.10342407
_cell_angle_gamma   65.87019348
_symmetry_Int_Tables_number   1
_chemical_formula_structural   Na4WO4
_chemical_formula_sum   'Na4 W1 O4'
_cell_volume   130.03468160
_cell_formula_units_Z   1
loop_
 _symmetry_equiv_pos_site_id
 _symmetry_equiv_pos_as_xyz
  1  'x, y, z'
loop_
 _atom_site_type_symbol
 _atom_site_label
 _atom_site_symmetry_multiplicity
 _atom_site_fract_x
 _atom_site_fract_y
 _atom_site_fract_z
 _atom_site_occupancy
  Na  Na0  1  0.00223279  0.10802695  0.97180355  1
  Na  Na1  1  0.21161966  0.28729525  0.37222674  1
  Na  Na2  1  0.59765583  0.71582162  0.15932427  1
  Na  Na3  1  0.79379725  0.90454566  0.57615381  1
  W  W4  1  0.46916145  0.47279370  0.72190279  1
  O  O5  1  0.68416184  0.32518092  0.39860469  1
  O  O6  1  0.47650290  0.16990566  0.95292437  1
  O  O7  1  0.88376850  0.50786507  0.77431232  1
  O  O8  1  0.31553456  0.83371580  0.60402185  1
