# generated using pymatgen
data_NaCrH8(NF3)2
_symmetry_space_group_name_H-M   'P 1'
_cell_length_a   5.79683781
_cell_length_b   5.80211782
_cell_length_c   6.14770651
_cell_angle_alpha   94.45761871
_cell_angle_beta   90.09859467
_cell_angle_gamma   91.34180450
_symmetry_Int_Tables_number   1
_chemical_formula_structural   NaCrH8(NF3)2
_chemical_formula_sum   'Na1 Cr1 H8 N2 F6'
_cell_volume   206.08827523
_cell_formula_units_Z   1
loop_
 _symmetry_equiv_pos_site_id
 _symmetry_equiv_pos_as_xyz
  1  'x, y, z'
loop_
 _atom_site_type_symbol
 _atom_site_label
 _atom_site_symmetry_multiplicity
 _atom_site_fract_x
 _atom_site_fract_y
 _atom_site_fract_z
 _atom_site_occupancy
  Na  Na0  1  0.16520181  0.29065639  0.63174951  1
  Cr  Cr1  1  0.16437489  0.28780976  0.11976842  1
  H  H2  1  0.56668544  0.90681994  0.91051042  1
  H  H3  1  0.47967082  0.99740952  0.12688734  1
  H  H4  1  0.70932436  0.68783915  0.29395816  1
  H  H5  1  0.70976001  0.46316826  0.42553091  1
  H  H6  1  0.26982003  0.91098130  0.91179436  1
  H  H7  1  0.56547588  0.18523633  0.91015536  1
  H  H8  1  0.94679415  0.76207274  0.42619738  1
  H  H9  1  0.73141330  0.67963147  0.59661204  1
  N  N10  1  0.42489326  0.04025262  0.95051777  1
  N  N11  1  0.78396493  0.66026640  0.44593933  1
  F  F12  1  0.96029168  0.49363673  0.95369714  1
  F  F13  1  0.38438013  0.46987087  0.92661595  1
  F  F14  1  0.95340866  0.17823613  0.32405868  1
  F  F15  1  0.38599774  0.06389785  0.32481357  1
  F  F16  1  0.27437913  0.49941164  0.32331279  1
  F  F17  1  0.98074591  0.05312414  0.94127876  1
