# generated using pymatgen
data_NaCu2(SeO5)2
_symmetry_space_group_name_H-M   'P 1'
_cell_length_a   5.48501778
_cell_length_b   5.54967451
_cell_length_c   7.46204424
_cell_angle_alpha   106.59983826
_cell_angle_beta   106.69265747
_cell_angle_gamma   98.63948059
_symmetry_Int_Tables_number   1
_chemical_formula_structural   NaCu2(SeO5)2
_chemical_formula_sum   'Na1 Cu2 Se2 O10'
_cell_volume   201.71964072
_cell_formula_units_Z   1
loop_
 _symmetry_equiv_pos_site_id
 _symmetry_equiv_pos_as_xyz
  1  'x, y, z'
loop_
 _atom_site_type_symbol
 _atom_site_label
 _atom_site_symmetry_multiplicity
 _atom_site_fract_x
 _atom_site_fract_y
 _atom_site_fract_z
 _atom_site_occupancy
  Na  Na0  1  0.94769150  0.47215813  0.29159588  1
  Cu  Cu1  1  0.93800366  0.47001517  0.79023439  1
  Cu  Cu2  1  0.44147572  0.46707562  0.79117465  1
  Se  Se3  1  0.27176788  0.07942890  0.05380135  1
  Se  Se4  1  0.64217120  0.85594791  0.55141902  1
  O  O5  1  0.06522001  0.09044849  0.17300799  1
  O  O6  1  0.62572390  0.15935399  0.67398989  1
  O  O7  1  0.24482618  0.78378189  0.91282630  1
  O  O8  1  0.20167306  0.28083003  0.91355467  1
  O  O9  1  0.76757461  0.52454782  0.97689801  1
  O  O10  1  0.65944135  0.66839361  0.68435663  1
  O  O11  1  0.92343110  0.87075222  0.50803536  1
  O  O12  1  0.38773519  0.73330253  0.34725469  1
  O  O13  1  0.10937135  0.40866455  0.61112791  1
  O  O14  1  0.56441826  0.20470682  0.22716361  1
