# generated using pymatgen
data_NaHg3
_symmetry_space_group_name_H-M   'P 1'
_cell_length_a   5.45862532
_cell_length_b   5.46105528
_cell_length_c   5.46001577
_cell_angle_alpha   60.18455124
_cell_angle_beta   60.38243484
_cell_angle_gamma   60.05606842
_symmetry_Int_Tables_number   1
_chemical_formula_structural   NaHg3
_chemical_formula_sum   'Na1 Hg3'
_cell_volume   115.62963143
_cell_formula_units_Z   1
loop_
 _symmetry_equiv_pos_site_id
 _symmetry_equiv_pos_as_xyz
  1  'x, y, z'
loop_
 _atom_site_type_symbol
 _atom_site_label
 _atom_site_symmetry_multiplicity
 _atom_site_fract_x
 _atom_site_fract_y
 _atom_site_fract_z
 _atom_site_occupancy
  Na  Na0  1  0.10328858  0.84529746  0.42603740  1
  Hg  Hg1  1  0.35317096  0.09546886  0.67654079  1
  Hg  Hg2  1  0.85334843  0.59548599  0.17629692  1
  Hg  Hg3  1  0.60320377  0.34561777  0.92669308  1
