# generated using pymatgen
data_NaHg3
_symmetry_space_group_name_H-M   'P 1'
_cell_length_a   5.56722116
_cell_length_b   6.69105864
_cell_length_c   6.70534039
_cell_angle_alpha   119.99683380
_cell_angle_beta   90.15027618
_cell_angle_gamma   90.08232880
_symmetry_Int_Tables_number   1
_chemical_formula_structural   NaHg3
_chemical_formula_sum   'Na2 Hg6'
_cell_volume   216.31913904
_cell_formula_units_Z   2
loop_
 _symmetry_equiv_pos_site_id
 _symmetry_equiv_pos_as_xyz
  1  'x, y, z'
loop_
 _atom_site_type_symbol
 _atom_site_label
 _atom_site_symmetry_multiplicity
 _atom_site_fract_x
 _atom_site_fract_y
 _atom_site_fract_z
 _atom_site_occupancy
  Na  Na0  1  0.70387805  0.75988990  0.16232282  1
  Na  Na1  1  0.20448017  0.42530268  0.49696863  1
  Hg  Hg2  1  0.20388500  0.92615956  0.49877185  1
  Hg  Hg3  1  0.70366222  0.25953764  0.16069514  1
  Hg  Hg4  1  0.70418441  0.76061016  0.66407287  1
  Hg  Hg5  1  0.20430785  0.92670047  0.99612069  1
  Hg  Hg6  1  0.70427972  0.25911680  0.66343510  1
  Hg  Hg7  1  0.20446195  0.42542410  0.99629509  1
