# generated using pymatgen
data_NaLa2RuO6
_symmetry_space_group_name_H-M   'P 1'
_cell_length_a   5.69174480
_cell_length_b   5.91551733
_cell_length_c   8.30908680
_cell_angle_alpha   89.94175720
_cell_angle_beta   90.07163239
_cell_angle_gamma   90.15543365
_symmetry_Int_Tables_number   1
_chemical_formula_structural   NaLa2RuO6
_chemical_formula_sum   'Na2 La4 Ru2 O12'
_cell_volume   279.76236211
_cell_formula_units_Z   2
loop_
 _symmetry_equiv_pos_site_id
 _symmetry_equiv_pos_as_xyz
  1  'x, y, z'
loop_
 _atom_site_type_symbol
 _atom_site_label
 _atom_site_symmetry_multiplicity
 _atom_site_fract_x
 _atom_site_fract_y
 _atom_site_fract_z
 _atom_site_occupancy
  Na  Na0  1  0.42300287  0.12194125  0.20119831  1
  Na  Na1  1  0.93793696  0.61945748  0.20931149  1
  La  La2  1  0.44555271  0.02077117  0.70844984  1
  La  La3  1  0.93144518  0.07962534  0.43914655  1
  La  La4  1  0.43243864  0.57892650  0.97300845  1
  La  La5  1  0.92251861  0.52167100  0.70482051  1
  Ru  Ru6  1  0.93133020  0.08040857  0.96039575  1
  Ru  Ru7  1  0.43279532  0.57890958  0.45109442  1
  O  O8  1  0.31939298  0.63022208  0.69247651  1
  O  O9  1  0.28385648  0.87959588  0.41008452  1
  O  O10  1  0.71924520  0.76523930  0.52093220  1
  O  O11  1  0.81740218  0.02470137  0.17752926  1
  O  O12  1  0.75125259  0.80978519  0.88036603  1
  O  O13  1  0.65357190  0.26700935  0.89363217  1
  O  O14  1  0.54087263  0.52456719  0.23240609  1
  O  O15  1  0.60967535  0.30981880  0.53221363  1
  O  O16  1  0.13127308  0.41765466  0.41850111  1
  O  O17  1  0.22369798  0.91785008  0.99275517  1
  O  O18  1  0.04134587  0.13193402  0.72118944  1
  O  O19  1  0.08922458  0.37576967  0.01317913  1
