# generated using pymatgen
data_NaLi5N2
_symmetry_space_group_name_H-M   'P 1'
_cell_length_a   3.72331333
_cell_length_b   3.96853709
_cell_length_c   6.67852020
_cell_angle_alpha   106.91941833
_cell_angle_beta   106.62593079
_cell_angle_gamma   90.27110291
_symmetry_Int_Tables_number   1
_chemical_formula_structural   NaLi5N2
_chemical_formula_sum   'Na1 Li5 N2'
_cell_volume   90.04624763
_cell_formula_units_Z   1
loop_
 _symmetry_equiv_pos_site_id
 _symmetry_equiv_pos_as_xyz
  1  'x, y, z'
loop_
 _atom_site_type_symbol
 _atom_site_label
 _atom_site_symmetry_multiplicity
 _atom_site_fract_x
 _atom_site_fract_y
 _atom_site_fract_z
 _atom_site_occupancy
  Na  Na0  1  0.26767266  0.08247213  0.72059858  1
  Li  Li1  1  0.80503780  0.61550283  0.79385453  1
  Li  Li2  1  0.14934237  0.46105826  0.47500843  1
  Li  Li3  1  0.59512097  0.90734518  0.37160850  1
  Li  Li4  1  0.97394407  0.78266585  0.12493679  1
  Li  Li5  1  0.47871310  0.29026359  0.14278547  1
  N  N6  1  0.64886630  0.46014050  0.47716779  1
  N  N7  1  0.40022308  0.71412957  0.98212272  1
