# generated using pymatgen
data_NaMgF3
_symmetry_space_group_name_H-M   'P 1'
_cell_length_a   3.97344255
_cell_length_b   3.98103762
_cell_length_c   3.97426844
_cell_angle_alpha   89.94293213
_cell_angle_beta   89.79260254
_cell_angle_gamma   89.99394226
_symmetry_Int_Tables_number   1
_chemical_formula_structural   NaMgF3
_chemical_formula_sum   'Na1 Mg1 F3'
_cell_volume   62.86622095
_cell_formula_units_Z   1
loop_
 _symmetry_equiv_pos_site_id
 _symmetry_equiv_pos_as_xyz
  1  'x, y, z'
loop_
 _atom_site_type_symbol
 _atom_site_label
 _atom_site_symmetry_multiplicity
 _atom_site_fract_x
 _atom_site_fract_y
 _atom_site_fract_z
 _atom_site_occupancy
  Na  Na0  1  0.61300790  0.39684099  0.40929347  1
  Mg  Mg1  1  0.11338716  0.89702636  0.90911132  1
  F  F2  1  0.11332418  0.39693218  0.90913296  1
  F  F3  1  0.61360228  0.89753145  0.90958905  1
  F  F4  1  0.11318228  0.89715618  0.40937105  1
