# generated using pymatgen
data_NaMnO2
_symmetry_space_group_name_H-M   'P 1'
_cell_length_a   3.06332588
_cell_length_b   5.21790123
_cell_length_c   5.73316050
_cell_angle_alpha   73.18099976
_cell_angle_beta   89.50984955
_cell_angle_gamma   91.59167480
_symmetry_Int_Tables_number   1
_chemical_formula_structural   NaMnO2
_chemical_formula_sum   'Na2 Mn2 O4'
_cell_volume   87.67255248
_cell_formula_units_Z   2
loop_
 _symmetry_equiv_pos_site_id
 _symmetry_equiv_pos_as_xyz
  1  'x, y, z'
loop_
 _atom_site_type_symbol
 _atom_site_label
 _atom_site_symmetry_multiplicity
 _atom_site_fract_x
 _atom_site_fract_y
 _atom_site_fract_z
 _atom_site_occupancy
  Na  Na0  1  0.70504183  0.56264865  0.27884957  1
  Na  Na1  1  0.20547462  0.06365984  0.27974418  1
  Mn  Mn2  1  0.20520863  0.56285536  0.77945065  1
  Mn  Mn3  1  0.70650202  0.06265787  0.77853721  1
  O  O4  1  0.65947789  0.80944282  0.57835037  1
  O  O5  1  0.26850629  0.81349570  0.97414362  1
  O  O6  1  0.16070452  0.31197801  0.57835537  1
  O  O7  1  0.76847845  0.31713679  0.97323644  1
