# generated using pymatgen
data_NaPaO3
_symmetry_space_group_name_H-M   'P 1'
_cell_length_a   4.32855701
_cell_length_b   4.31182146
_cell_length_c   4.28171301
_cell_angle_alpha   89.52655792
_cell_angle_beta   89.63626099
_cell_angle_gamma   89.88964844
_symmetry_Int_Tables_number   1
_chemical_formula_structural   NaPaO3
_chemical_formula_sum   'Na1 Pa1 O3'
_cell_volume   79.90926308
_cell_formula_units_Z   1
loop_
 _symmetry_equiv_pos_site_id
 _symmetry_equiv_pos_as_xyz
  1  'x, y, z'
loop_
 _atom_site_type_symbol
 _atom_site_label
 _atom_site_symmetry_multiplicity
 _atom_site_fract_x
 _atom_site_fract_y
 _atom_site_fract_z
 _atom_site_occupancy
  Na  Na0  1  0.14953555  0.58314663  0.98838854  1
  Pa  Pa1  1  0.64978039  0.08279181  0.48867205  1
  O  O2  1  0.14917852  0.08295766  0.48893958  1
  O  O3  1  0.64943427  0.08296060  0.98808342  1
  O  O4  1  0.64884031  0.58223462  0.48833457  1
