# generated using pymatgen
data_NaScO2
_symmetry_space_group_name_H-M   'P 1'
_cell_length_a   3.16151285
_cell_length_b   3.16615200
_cell_length_c   5.95501423
_cell_angle_alpha   74.55656433
_cell_angle_beta   74.95368958
_cell_angle_gamma   61.08349991
_symmetry_Int_Tables_number   1
_chemical_formula_structural   NaScO2
_chemical_formula_sum   'Na1 Sc1 O2'
_cell_volume   49.68465773
_cell_formula_units_Z   1
loop_
 _symmetry_equiv_pos_site_id
 _symmetry_equiv_pos_as_xyz
  1  'x, y, z'
loop_
 _atom_site_type_symbol
 _atom_site_label
 _atom_site_symmetry_multiplicity
 _atom_site_fract_x
 _atom_site_fract_y
 _atom_site_fract_z
 _atom_site_occupancy
  Na  Na0  1  0.78487235  0.96602100  0.73802590  1
  Sc  Sc1  1  0.28524035  0.46669072  0.23750110  1
  O  O2  1  0.01555064  0.19939929  0.03691663  1
  O  O3  1  0.55280483  0.73308039  0.43982470  1
