# generated using pymatgen
data_NaSi2Pd3
_symmetry_space_group_name_H-M   'P 1'
_cell_length_a   3.83205295
_cell_length_b   6.84854794
_cell_length_c   8.20564938
_cell_angle_alpha   99.75056458
_cell_angle_beta   90.49928284
_cell_angle_gamma   89.96089935
_symmetry_Int_Tables_number   1
_chemical_formula_structural   NaSi2Pd3
_chemical_formula_sum   'Na2 Si4 Pd6'
_cell_volume   212.23007293
_cell_formula_units_Z   2
loop_
 _symmetry_equiv_pos_site_id
 _symmetry_equiv_pos_as_xyz
  1  'x, y, z'
loop_
 _atom_site_type_symbol
 _atom_site_label
 _atom_site_symmetry_multiplicity
 _atom_site_fract_x
 _atom_site_fract_y
 _atom_site_fract_z
 _atom_site_occupancy
  Na  Na0  1  0.07617283  0.19948068  0.43761182  1
  Na  Na1  1  0.07583199  0.60282314  0.76997519  1
  Si  Si2  1  0.07551828  0.20171051  0.92404497  1
  Si  Si3  1  0.57593220  0.92132229  0.58480555  1
  Si  Si4  1  0.07616042  0.93622792  0.08862443  1
  Si  Si5  1  0.57586044  0.52443445  0.33740291  1
  Pd  Pd6  1  0.57609081  0.22669518  0.14611448  1
  Pd  Pd7  1  0.57563365  0.85187215  0.26047081  1
  Pd  Pd8  1  0.57521820  0.93165213  0.88027316  1
  Pd  Pd9  1  0.07585748  0.72697532  0.46099991  1
  Pd  Pd10  1  0.57582450  0.27342448  0.73581231  1
  Pd  Pd11  1  0.07593028  0.53953522  0.12513344  1
