# generated using pymatgen
data_NaSrHg2
_symmetry_space_group_name_H-M   'P 1'
_cell_length_a   5.51409197
_cell_length_b   5.51644325
_cell_length_c   5.50573635
_cell_angle_alpha   60.11172867
_cell_angle_beta   59.88052368
_cell_angle_gamma   59.95029068
_symmetry_Int_Tables_number   1
_chemical_formula_structural   NaSrHg2
_chemical_formula_sum   'Na1 Sr1 Hg2'
_cell_volume   118.36987770
_cell_formula_units_Z   1
loop_
 _symmetry_equiv_pos_site_id
 _symmetry_equiv_pos_as_xyz
  1  'x, y, z'
loop_
 _atom_site_type_symbol
 _atom_site_label
 _atom_site_symmetry_multiplicity
 _atom_site_fract_x
 _atom_site_fract_y
 _atom_site_fract_z
 _atom_site_occupancy
  Na  Na0  1  0.44726691  0.78491896  0.86307007  1
  Sr  Sr1  1  0.94725788  0.28505030  0.36305374  1
  Hg  Hg2  1  0.69729102  0.03452076  0.11292893  1
  Hg  Hg3  1  0.19720152  0.53453374  0.61360210  1
