# generated using pymatgen
data_NaTbO2
_symmetry_space_group_name_H-M   'P 1'
_cell_length_a   4.71623993
_cell_length_b   4.69132948
_cell_length_c   6.25546074
_cell_angle_alpha   112.23625946
_cell_angle_beta   112.33281708
_cell_angle_gamma   89.99217987
_symmetry_Int_Tables_number   1
_chemical_formula_structural   NaTbO2
_chemical_formula_sum   'Na2 Tb2 O4'
_cell_volume   116.82242838
_cell_formula_units_Z   2
loop_
 _symmetry_equiv_pos_site_id
 _symmetry_equiv_pos_as_xyz
  1  'x, y, z'
loop_
 _atom_site_type_symbol
 _atom_site_label
 _atom_site_symmetry_multiplicity
 _atom_site_fract_x
 _atom_site_fract_y
 _atom_site_fract_z
 _atom_site_occupancy
  Na  Na0  1  0.93507671  0.63804638  0.04509941  1
  Na  Na1  1  0.18378980  0.38793361  0.54561186  1
  Tb  Tb2  1  0.68507320  0.88761622  0.54533309  1
  Tb  Tb3  1  0.43406627  0.13752528  0.04535309  1
  O  O4  1  0.46504211  0.66805720  0.10548636  1
  O  O5  1  0.21583328  0.92032069  0.60502326  1
  O  O6  1  0.65195328  0.35572600  0.48094392  1
  O  O7  1  0.90452152  0.10631521  0.98290694  1
