# generated using pymatgen
data_NaTi3Nb(CuO4)3
_symmetry_space_group_name_H-M   'P 1'
_cell_length_a   6.45484877
_cell_length_b   6.45844841
_cell_length_c   6.45424271
_cell_angle_alpha   109.50028992
_cell_angle_beta   109.40312958
_cell_angle_gamma   109.46230316
_symmetry_Int_Tables_number   1
_chemical_formula_structural   NaTi3Nb(CuO4)3
_chemical_formula_sum   'Na1 Ti3 Nb1 Cu3 O12'
_cell_volume   207.24979426
_cell_formula_units_Z   1
loop_
 _symmetry_equiv_pos_site_id
 _symmetry_equiv_pos_as_xyz
  1  'x, y, z'
loop_
 _atom_site_type_symbol
 _atom_site_label
 _atom_site_symmetry_multiplicity
 _atom_site_fract_x
 _atom_site_fract_y
 _atom_site_fract_z
 _atom_site_occupancy
  Na  Na0  1  0.30133754  0.72468430  0.71950293  1
  Ti  Ti1  1  0.30152392  0.72453660  0.21955968  1
  Ti  Ti2  1  0.30116737  0.22388943  0.71936959  1
  Ti  Ti3  1  0.80141652  0.72422332  0.71983230  1
  Nb  Nb4  1  0.80074000  0.22509308  0.21958680  1
  Cu  Cu5  1  0.30108091  0.22523196  0.21919057  1
  Cu  Cu6  1  0.80084878  0.22420777  0.71951556  1
  Cu  Cu7  1  0.80091447  0.72522366  0.22005214  1
  O  O8  1  0.42981479  0.03414410  0.53688276  1
  O  O9  1  0.48035577  0.20943901  0.02656294  1
  O  O10  1  0.81696045  0.42148754  0.53798729  1
  O  O11  1  0.12098502  0.85356575  0.02683406  1
  O  O12  1  0.78983861  0.03324869  0.89830762  1
  O  O13  1  0.17398049  0.41881421  0.89972472  1
  O  O14  1  0.99273205  0.54915363  0.23328194  1
  O  O15  1  0.61118573  0.90318960  0.20602220  1
  O  O16  1  0.12174237  0.23920099  0.41367218  1
  O  O17  1  0.61023098  0.54702312  0.84751153  1
  O  O18  1  0.99222904  0.90541214  0.59568477  1
  O  O19  1  0.48064053  0.59674859  0.41195494  1
