# generated using pymatgen
data_NaTiVS4
_symmetry_space_group_name_H-M   'P 1'
_cell_length_a   3.42523336
_cell_length_b   3.39375305
_cell_length_c   12.74184227
_cell_angle_alpha   89.73258972
_cell_angle_beta   90.06048584
_cell_angle_gamma   119.76572418
_symmetry_Int_Tables_number   1
_chemical_formula_structural   NaTiVS4
_chemical_formula_sum   'Na1 Ti1 V1 S4'
_cell_volume   128.57261736
_cell_formula_units_Z   1
loop_
 _symmetry_equiv_pos_site_id
 _symmetry_equiv_pos_as_xyz
  1  'x, y, z'
loop_
 _atom_site_type_symbol
 _atom_site_label
 _atom_site_symmetry_multiplicity
 _atom_site_fract_x
 _atom_site_fract_y
 _atom_site_fract_z
 _atom_site_occupancy
  Na  Na0  1  0.77356547  0.64401686  0.97502178  1
  Ti  Ti1  1  0.77298915  0.64413202  0.71176618  1
  V  V2  1  0.77292389  0.64341825  0.23380414  1
  S  S3  1  0.10676956  0.31062025  0.12497755  1
  S  S4  1  0.43970937  0.97804385  0.32818773  1
  S  S5  1  0.10641474  0.31073090  0.60462624  1
  S  S6  1  0.43958774  0.97786874  0.82586807  1
