# generated using pymatgen
data_NaTl2In
_symmetry_space_group_name_H-M   'P 1'
_cell_length_a   5.40579844
_cell_length_b   5.40644360
_cell_length_c   5.39664268
_cell_angle_alpha   60.00243759
_cell_angle_beta   59.77649689
_cell_angle_gamma   60.04629517
_symmetry_Int_Tables_number   1
_chemical_formula_structural   NaTl2In
_chemical_formula_sum   'Na1 Tl2 In1'
_cell_volume   111.37825938
_cell_formula_units_Z   1
loop_
 _symmetry_equiv_pos_site_id
 _symmetry_equiv_pos_as_xyz
  1  'x, y, z'
loop_
 _atom_site_type_symbol
 _atom_site_label
 _atom_site_symmetry_multiplicity
 _atom_site_fract_x
 _atom_site_fract_y
 _atom_site_fract_z
 _atom_site_occupancy
  Na  Na0  1  0.75948441  0.70096642  0.00056970  1
  Tl  Tl1  1  0.00949862  0.95118678  0.25030598  1
  Tl  Tl2  1  0.25918281  0.20130719  0.50098914  1
  In  In3  1  0.50914228  0.45079747  0.75033748  1
