# generated using pymatgen
data_NaVO3
_symmetry_space_group_name_H-M   'P 1'
_cell_length_a   5.30611849
_cell_length_b   5.31012917
_cell_length_c   7.61707592
_cell_angle_alpha   89.95198059
_cell_angle_beta   89.98286438
_cell_angle_gamma   90.17743683
_symmetry_Int_Tables_number   1
_chemical_formula_structural   NaVO3
_chemical_formula_sum   'Na4 V4 O12'
_cell_volume   214.61894632
_cell_formula_units_Z   4
loop_
 _symmetry_equiv_pos_site_id
 _symmetry_equiv_pos_as_xyz
  1  'x, y, z'
loop_
 _atom_site_type_symbol
 _atom_site_label
 _atom_site_symmetry_multiplicity
 _atom_site_fract_x
 _atom_site_fract_y
 _atom_site_fract_z
 _atom_site_occupancy
  Na  Na0  1  0.00018787  0.58011740  0.99316758  1
  Na  Na1  1  0.49990091  0.07910530  0.99256074  1
  Na  Na2  1  0.50059104  0.07993679  0.49238047  1
  Na  Na3  1  0.00031678  0.58000785  0.49208111  1
  V  V4  1  0.50042558  0.57748467  0.24361768  1
  V  V5  1  0.00062020  0.08013250  0.74362087  1
  V  V6  1  0.99964225  0.07989676  0.24335560  1
  V  V7  1  0.50010169  0.57929081  0.74417567  1
  O  O8  1  0.20135565  0.38068062  0.74178410  1
  O  O9  1  0.00040340  0.07987887  0.49235082  1
  O  O10  1  0.29793856  0.28003848  0.24050510  1
  O  O11  1  0.79799122  0.37847334  0.24124178  1
  O  O12  1  0.00012279  0.07994488  0.98692048  1
  O  O13  1  0.50022441  0.57991242  0.99175757  1
  O  O14  1  0.29871672  0.87791783  0.74136299  1
  O  O15  1  0.79840058  0.77954865  0.74106574  1
  O  O16  1  0.70800650  0.87723356  0.24113621  1
  O  O17  1  0.50006264  0.58042341  0.48763534  1
  O  O18  1  0.69989097  0.27899843  0.74094480  1
  O  O19  1  0.20495445  0.78147405  0.24078541  1
