# generated using pymatgen
data_NaZnP
_symmetry_space_group_name_H-M   'P 1'
_cell_length_a   4.12462139
_cell_length_b   4.08170176
_cell_length_c   7.10769987
_cell_angle_alpha   89.80847931
_cell_angle_beta   89.79071808
_cell_angle_gamma   89.81972504
_symmetry_Int_Tables_number   1
_chemical_formula_structural   NaZnP
_chemical_formula_sum   'Na2 Zn2 P2'
_cell_volume   119.65944454
_cell_formula_units_Z   2
loop_
 _symmetry_equiv_pos_site_id
 _symmetry_equiv_pos_as_xyz
  1  'x, y, z'
loop_
 _atom_site_type_symbol
 _atom_site_label
 _atom_site_symmetry_multiplicity
 _atom_site_fract_x
 _atom_site_fract_y
 _atom_site_fract_z
 _atom_site_occupancy
  Na  Na0  1  0.92210317  0.91593802  0.55130488  1
  Na  Na1  1  0.42214659  0.41618338  0.84028399  1
  Zn  Zn2  1  0.92161375  0.41561812  0.19769609  1
  Zn  Zn3  1  0.42132631  0.91618329  0.19558579  1
  P  P4  1  0.42151597  0.41564113  0.40666077  1
  P  P5  1  0.92244548  0.91586691  0.98073232  1
