# generated using pymatgen
data_Nb4CuSe8
_symmetry_space_group_name_H-M   'P 1'
_cell_length_a   3.45960641
_cell_length_b   3.36801457
_cell_length_c   29.49148560
_cell_angle_alpha   89.67115784
_cell_angle_beta   89.59449005
_cell_angle_gamma   122.42301941
_symmetry_Int_Tables_number   1
_chemical_formula_structural   Nb4CuSe8
_chemical_formula_sum   'Nb4 Cu1 Se8'
_cell_volume   290.04080148
_cell_formula_units_Z   1
loop_
 _symmetry_equiv_pos_site_id
 _symmetry_equiv_pos_as_xyz
  1  'x, y, z'
loop_
 _atom_site_type_symbol
 _atom_site_label
 _atom_site_symmetry_multiplicity
 _atom_site_fract_x
 _atom_site_fract_y
 _atom_site_fract_z
 _atom_site_occupancy
  Nb  Nb0  1  0.71164083  0.79158598  0.15081829  1
  Nb  Nb1  1  0.37789771  0.12462918  0.77078384  1
  Nb  Nb2  1  0.71151435  0.79172862  0.37473357  1
  Nb  Nb3  1  0.04517292  0.45758718  0.54206401  1
  Cu  Cu4  1  0.04518076  0.45736483  0.99526483  1
  Se  Se5  1  0.04498912  0.45768178  0.71131957  1
  Se  Se6  1  0.37839490  0.12488594  0.58619547  1
  Se  Se7  1  0.04452399  0.45765889  0.20585552  1
  Se  Se8  1  0.04472925  0.45785239  0.82903957  1
  Se  Se9  1  0.04524024  0.45771655  0.43156675  1
  Se  Se10  1  0.37847844  0.12478457  0.32767093  1
  Se  Se11  1  0.04487932  0.45810583  0.09180874  1
  Se  Se12  1  0.37799895  0.12472498  0.96233219  1
