# generated using pymatgen
data_Nb4Ni(CS2)2
_symmetry_space_group_name_H-M   'P 1'
_cell_length_a   3.29963565
_cell_length_b   5.76951170
_cell_length_c   8.70881844
_cell_angle_alpha   89.88314819
_cell_angle_beta   90.09303284
_cell_angle_gamma   89.97042847
_symmetry_Int_Tables_number   1
_chemical_formula_structural   Nb4Ni(CS2)2
_chemical_formula_sum   'Nb4 Ni1 C2 S4'
_cell_volume   165.79168575
_cell_formula_units_Z   1
loop_
 _symmetry_equiv_pos_site_id
 _symmetry_equiv_pos_as_xyz
  1  'x, y, z'
loop_
 _atom_site_type_symbol
 _atom_site_label
 _atom_site_symmetry_multiplicity
 _atom_site_fract_x
 _atom_site_fract_y
 _atom_site_fract_z
 _atom_site_occupancy
  Nb  Nb0  1  0.00396454  0.83697236  0.90392292  1
  Nb  Nb1  1  0.50412410  0.67418277  0.17776595  1
  Nb  Nb2  1  0.00387416  0.17331651  0.17638344  1
  Nb  Nb3  1  0.50375265  0.33738276  0.90429151  1
  Ni  Ni4  1  0.00430434  0.83832037  0.53828567  1
  C  C5  1  0.50390184  0.00459158  0.03696220  1
  C  C6  1  0.00400969  0.50499529  0.03737292  1
  S  S7  1  0.50416172  0.00484085  0.37721983  1
  S  S8  1  0.00394440  0.16180773  0.70898598  1
  S  S9  1  0.00458264  0.50746518  0.37730560  1
  S  S10  1  0.50407255  0.66412669  0.70436442  1
