# generated using pymatgen
data_Nb5(PPd)4
_symmetry_space_group_name_H-M   'P 1'
_cell_length_a   3.67075586
_cell_length_b   6.89343834
_cell_length_c   8.49777603
_cell_angle_alpha   106.96097565
_cell_angle_beta   90.21566010
_cell_angle_gamma   90.00650024
_symmetry_Int_Tables_number   1
_chemical_formula_structural   Nb5(PPd)4
_chemical_formula_sum   'Nb5 P4 Pd4'
_cell_volume   205.67423596
_cell_formula_units_Z   1
loop_
 _symmetry_equiv_pos_site_id
 _symmetry_equiv_pos_as_xyz
  1  'x, y, z'
loop_
 _atom_site_type_symbol
 _atom_site_label
 _atom_site_symmetry_multiplicity
 _atom_site_fract_x
 _atom_site_fract_y
 _atom_site_fract_z
 _atom_site_occupancy
  Nb  Nb0  1  0.39828563  0.13457589  0.44573209  1
  Nb  Nb1  1  0.39829791  0.89975399  0.09702444  1
  Nb  Nb2  1  0.89836210  0.89721698  0.59394318  1
  Nb  Nb3  1  0.39837605  0.39842799  0.10129378  1
  Nb  Nb4  1  0.39810932  0.65794849  0.74297982  1
  P  P5  1  0.89829808  0.16888666  0.22354864  1
  P  P6  1  0.89828151  0.62986845  0.97204542  1
  P  P7  1  0.39829853  0.09349509  0.75834471  1
  P  P8  1  0.39827803  0.69396633  0.42484555  1
  Pd  Pd9  1  0.89845592  0.76707506  0.26583067  1
  Pd  Pd10  1  0.89849997  0.02910296  0.92694300  1
  Pd  Pd11  1  0.89822388  0.33166075  0.75274545  1
  Pd  Pd12  1  0.89837646  0.46410394  0.44650924  1
