# generated using pymatgen
data_NbAlCu
_symmetry_space_group_name_H-M   'P 1'
_cell_length_a   4.35963821
_cell_length_b   6.98659801
_cell_length_c   7.01348114
_cell_angle_alpha   79.53569794
_cell_angle_beta   72.02835083
_cell_angle_gamma   71.61624146
_symmetry_Int_Tables_number   1
_chemical_formula_structural   NbAlCu
_chemical_formula_sum   'Nb4 Al4 Cu4'
_cell_volume   191.98774792
_cell_formula_units_Z   4
loop_
 _symmetry_equiv_pos_site_id
 _symmetry_equiv_pos_as_xyz
  1  'x, y, z'
loop_
 _atom_site_type_symbol
 _atom_site_label
 _atom_site_symmetry_multiplicity
 _atom_site_fract_x
 _atom_site_fract_y
 _atom_site_fract_z
 _atom_site_occupancy
  Nb  Nb0  1  0.17636639  0.30634573  0.11526854  1
  Nb  Nb1  1  0.49854496  0.95629978  0.80344921  1
  Nb  Nb2  1  0.67831451  0.04579104  0.36428937  1
  Nb  Nb3  1  0.17874722  0.78257084  0.61927944  1
  Al  Al4  1  0.99412513  0.21997468  0.55049759  1
  Al  Al5  1  0.98614413  0.73817676  0.05085538  1
  Al  Al6  1  0.68670934  0.53066200  0.85511619  1
  Al  Al7  1  0.48665559  0.47961122  0.29721037  1
  Cu  Cu8  1  0.33923468  0.86816692  0.20611945  1
  Cu  Cu9  1  0.84514838  0.61722052  0.45009962  1
  Cu  Cu10  1  0.34636536  0.37514311  0.69451904  1
  Cu  Cu11  1  0.84418738  0.13063805  0.94523317  1
