# generated using pymatgen
data_NbCoSn
_symmetry_space_group_name_H-M   'P 1'
_cell_length_a   4.26501846
_cell_length_b   4.24958229
_cell_length_c   4.27637863
_cell_angle_alpha   59.74234390
_cell_angle_beta   59.97319412
_cell_angle_gamma   59.93965149
_symmetry_Int_Tables_number   1
_chemical_formula_structural   NbCoSn
_chemical_formula_sum   'Nb1 Co1 Sn1'
_cell_volume   54.66258448
_cell_formula_units_Z   1
loop_
 _symmetry_equiv_pos_site_id
 _symmetry_equiv_pos_as_xyz
  1  'x, y, z'
loop_
 _atom_site_type_symbol
 _atom_site_label
 _atom_site_symmetry_multiplicity
 _atom_site_fract_x
 _atom_site_fract_y
 _atom_site_fract_z
 _atom_site_occupancy
  Nb  Nb0  1  0.65393782  0.36757508  0.84857786  1
  Co  Co1  1  0.90343535  0.61790055  0.09937282  1
  Sn  Sn2  1  0.15382569  0.86775357  0.34985834  1
