# generated using pymatgen
data_NbInSe2
_symmetry_space_group_name_H-M   'P 1'
_cell_length_a   3.53135848
_cell_length_b   3.54590249
_cell_length_c   8.34287834
_cell_angle_alpha   89.96108246
_cell_angle_beta   90.13341522
_cell_angle_gamma   120.69589996
_symmetry_Int_Tables_number   1
_chemical_formula_structural   NbInSe2
_chemical_formula_sum   'Nb1 In1 Se2'
_cell_volume   89.83085769
_cell_formula_units_Z   1
loop_
 _symmetry_equiv_pos_site_id
 _symmetry_equiv_pos_as_xyz
  1  'x, y, z'
loop_
 _atom_site_type_symbol
 _atom_site_label
 _atom_site_symmetry_multiplicity
 _atom_site_fract_x
 _atom_site_fract_y
 _atom_site_fract_z
 _atom_site_occupancy
  Nb  Nb0  1  0.05682613  0.79125822  0.00142905  1
  In  In1  1  0.05508256  0.79148537  0.50127685  1
  Se  Se2  1  0.38927796  0.45822895  0.19844778  1
  Se  Se3  1  0.38906369  0.45759216  0.79962808  1
