# generated using pymatgen
data_NbNiB
_symmetry_space_group_name_H-M   'P 1'
_cell_length_a   3.23205423
_cell_length_b   4.66574144
_cell_length_c   4.80077457
_cell_angle_alpha   89.91329956
_cell_angle_beta   89.59983063
_cell_angle_gamma   111.08851624
_symmetry_Int_Tables_number   1
_chemical_formula_structural   NbNiB
_chemical_formula_sum   'Nb2 Ni2 B2'
_cell_volume   67.54443571
_cell_formula_units_Z   2
loop_
 _symmetry_equiv_pos_site_id
 _symmetry_equiv_pos_as_xyz
  1  'x, y, z'
loop_
 _atom_site_type_symbol
 _atom_site_label
 _atom_site_symmetry_multiplicity
 _atom_site_fract_x
 _atom_site_fract_y
 _atom_site_fract_z
 _atom_site_occupancy
  Nb  Nb0  1  0.16509193  0.00772784  0.91400862  1
  Nb  Nb1  1  0.57851142  0.83917654  0.41343504  1
  Ni  Ni2  1  0.87359816  0.42565775  0.16510454  1
  Ni  Ni3  1  0.87249750  0.42600983  0.66461235  1
  B  B4  1  0.45604908  0.59182423  0.91639471  1
  B  B5  1  0.28661707  0.25516704  0.41556436  1
