# generated using pymatgen
data_NbSeS
_symmetry_space_group_name_H-M   'P 1'
_cell_length_a   3.35342741
_cell_length_b   3.36741328
_cell_length_c   14.02741623
_cell_angle_alpha   89.90316772
_cell_angle_beta   90.07604980
_cell_angle_gamma   119.35787201
_symmetry_Int_Tables_number   1
_chemical_formula_structural   NbSeS
_chemical_formula_sum   'Nb2 Se2 S2'
_cell_volume   138.05967605
_cell_formula_units_Z   2
loop_
 _symmetry_equiv_pos_site_id
 _symmetry_equiv_pos_as_xyz
  1  'x, y, z'
loop_
 _atom_site_type_symbol
 _atom_site_label
 _atom_site_symmetry_multiplicity
 _atom_site_fract_x
 _atom_site_fract_y
 _atom_site_fract_z
 _atom_site_occupancy
  Nb  Nb0  1  0.51263505  0.72395289  0.90830034  1
  Nb  Nb1  1  0.51213765  0.72421801  0.40788969  1
  Se  Se2  1  0.84592974  0.39056128  0.78742647  1
  Se  Se3  1  0.17949836  0.05824471  0.02019788  1
  S  S4  1  0.17921612  0.05772867  0.29806852  1
  S  S5  1  0.17865339  0.05762035  0.52075726  1
