# generated using pymatgen
data_Nd(MnSi)2
_symmetry_space_group_name_H-M   'P 1'
_cell_length_a   3.90970802
_cell_length_b   3.89395571
_cell_length_c   5.88301611
_cell_angle_alpha   109.15833282
_cell_angle_beta   109.02810669
_cell_angle_gamma   89.99072266
_symmetry_Int_Tables_number   1
_chemical_formula_structural   Nd(MnSi)2
_chemical_formula_sum   'Nd1 Mn2 Si2'
_cell_volume   79.40658902
_cell_formula_units_Z   1
loop_
 _symmetry_equiv_pos_site_id
 _symmetry_equiv_pos_as_xyz
  1  'x, y, z'
loop_
 _atom_site_type_symbol
 _atom_site_label
 _atom_site_symmetry_multiplicity
 _atom_site_fract_x
 _atom_site_fract_y
 _atom_site_fract_z
 _atom_site_occupancy
  Nd  Nd0  1  0.94281119  0.85681123  0.06320623  1
  Mn  Mn1  1  0.69297671  0.10708946  0.56344128  1
  Mn  Mn2  1  0.19288240  0.60623986  0.56337166  1
  Si  Si3  1  0.56748581  0.48202300  0.31306249  1
  Si  Si4  1  0.31760341  0.23321158  0.81444055  1
