# generated using pymatgen
data_Nd(NiSn)2
_symmetry_space_group_name_H-M   'P 1'
_cell_length_a   4.30386019
_cell_length_b   6.54897594
_cell_length_c   7.82722378
_cell_angle_alpha   103.87893677
_cell_angle_beta   90.02218628
_cell_angle_gamma   109.17655945
_symmetry_Int_Tables_number   1
_chemical_formula_structural   Nd(NiSn)2
_chemical_formula_sum   'Nd2 Ni4 Sn4'
_cell_volume   201.53608933
_cell_formula_units_Z   2
loop_
 _symmetry_equiv_pos_site_id
 _symmetry_equiv_pos_as_xyz
  1  'x, y, z'
loop_
 _atom_site_type_symbol
 _atom_site_label
 _atom_site_symmetry_multiplicity
 _atom_site_fract_x
 _atom_site_fract_y
 _atom_site_fract_z
 _atom_site_occupancy
  Nd  Nd0  1  0.93190175  0.47946683  0.36459163  1
  Nd  Nd1  1  0.98072618  0.58924431  0.91428554  1
  Ni  Ni2  1  0.57822335  0.76966876  0.18113148  1
  Ni  Ni3  1  0.32782942  0.28793120  0.02753397  1
  Ni  Ni4  1  0.53243250  0.69179642  0.66387588  1
  Ni  Ni5  1  0.15691829  0.93752980  0.70482892  1
  Sn  Sn6  1  0.34210464  0.31026402  0.65663952  1
  Sn  Sn7  1  0.70737183  0.03995701  0.93474525  1
  Sn  Sn8  1  0.20098852  0.02378661  0.23838343  1
  Sn  Sn9  1  0.65987402  0.94566047  0.49136317  1
