# generated using pymatgen
data_Nd(SiIr)2
_symmetry_space_group_name_H-M   'P 1'
_cell_length_a   4.26445770
_cell_length_b   4.25785923
_cell_length_c   9.87173653
_cell_angle_alpha   89.96091461
_cell_angle_beta   89.93375397
_cell_angle_gamma   90.13426971
_symmetry_Int_Tables_number   1
_chemical_formula_structural   Nd(SiIr)2
_chemical_formula_sum   'Nd2 Si4 Ir4'
_cell_volume   179.24501290
_cell_formula_units_Z   2
loop_
 _symmetry_equiv_pos_site_id
 _symmetry_equiv_pos_as_xyz
  1  'x, y, z'
loop_
 _atom_site_type_symbol
 _atom_site_label
 _atom_site_symmetry_multiplicity
 _atom_site_fract_x
 _atom_site_fract_y
 _atom_site_fract_z
 _atom_site_occupancy
  Nd  Nd0  1  0.75655049  0.03653639  0.23024541  1
  Nd  Nd1  1  0.25729850  0.53662682  0.71712387  1
  Si  Si2  1  0.25681266  0.53663105  0.10181361  1
  Si  Si3  1  0.25717297  0.03687913  0.47445762  1
  Si  Si4  1  0.75705242  0.53691459  0.47421813  1
  Si  Si5  1  0.75688857  0.03676094  0.84414887  1
  Ir  Ir6  1  0.25670552  0.53657472  0.35085103  1
  Ir  Ir7  1  0.75657511  0.03681386  0.59941751  1
  Ir  Ir8  1  0.75689316  0.53677505  0.97386837  1
  Ir  Ir9  1  0.25720727  0.03698667  0.97382402  1
