# generated using pymatgen
data_Nd2PdRu3
_symmetry_space_group_name_H-M   'P 1'
_cell_length_a   5.46094942
_cell_length_b   5.46097469
_cell_length_c   5.45270824
_cell_angle_alpha   60.23011017
_cell_angle_beta   60.00380707
_cell_angle_gamma   60.06377029
_symmetry_Int_Tables_number   1
_chemical_formula_structural   Nd2PdRu3
_chemical_formula_sum   'Nd2 Pd1 Ru3'
_cell_volume   115.24107647
_cell_formula_units_Z   1
loop_
 _symmetry_equiv_pos_site_id
 _symmetry_equiv_pos_as_xyz
  1  'x, y, z'
loop_
 _atom_site_type_symbol
 _atom_site_label
 _atom_site_symmetry_multiplicity
 _atom_site_fract_x
 _atom_site_fract_y
 _atom_site_fract_z
 _atom_site_occupancy
  Nd  Nd0  1  0.74309653  0.72827834  0.61778325  1
  Nd  Nd1  1  0.99333018  0.97875965  0.86456364  1
  Pd  Pd2  1  0.36797038  0.85491621  0.23992652  1
  Ru  Ru3  1  0.86758912  0.35368213  0.24056187  1
  Ru  Ru4  1  0.36734897  0.35422689  0.24050412  1
  Ru  Ru5  1  0.36738122  0.35364759  0.74021709  1
