# generated using pymatgen
data_Nd2Zn5Pb
_symmetry_space_group_name_H-M   'P 1'
_cell_length_a   4.70488834
_cell_length_b   9.18691444
_cell_length_c   9.23618984
_cell_angle_alpha   77.67334747
_cell_angle_beta   75.27971649
_cell_angle_gamma   74.63091278
_symmetry_Int_Tables_number   1
_chemical_formula_structural   Nd2Zn5Pb
_chemical_formula_sum   'Nd4 Zn10 Pb2'
_cell_volume   367.70871595
_cell_formula_units_Z   2
loop_
 _symmetry_equiv_pos_site_id
 _symmetry_equiv_pos_as_xyz
  1  'x, y, z'
loop_
 _atom_site_type_symbol
 _atom_site_label
 _atom_site_symmetry_multiplicity
 _atom_site_fract_x
 _atom_site_fract_y
 _atom_site_fract_z
 _atom_site_occupancy
  Nd  Nd0  1  0.12405829  0.99145383  0.81988585  1
  Nd  Nd1  1  0.76936287  0.06662782  0.45480168  1
  Nd  Nd2  1  0.54946917  0.47457793  0.49357206  1
  Nd  Nd3  1  0.65828216  0.65881306  0.07004638  1
  Zn  Zn4  1  0.34780604  0.80716187  0.56385422  1
  Zn  Zn5  1  0.99788284  0.92152017  0.14597264  1
  Zn  Zn6  1  0.12389585  0.24947952  0.56621009  1
  Zn  Zn7  1  0.50170320  0.25242075  0.79287308  1
  Zn  Zn8  1  0.92933100  0.44018894  0.76239431  1
  Zn  Zn9  1  0.43568057  0.88803655  0.29345912  1
  Zn  Zn10  1  0.31841078  0.59475136  0.83130366  1
  Zn  Zn11  1  0.47135749  0.07086018  0.04984163  1
  Zn  Zn12  1  0.80920643  0.74997640  0.71018654  1
  Zn  Zn13  1  0.21543893  0.35347956  0.26454729  1
  Pb  Pb14  1  0.00440796  0.68481022  0.37327406  1
  Pb  Pb15  1  0.84931791  0.27975979  0.07885718  1
