# generated using pymatgen
data_Nd3GaO6
_symmetry_space_group_name_H-M   'P 1'
_cell_length_a   5.70946932
_cell_length_b   7.36239767
_cell_length_c   7.47362137
_cell_angle_alpha   103.33460999
_cell_angle_beta   90.13504791
_cell_angle_gamma   90.01218414
_symmetry_Int_Tables_number   1
_chemical_formula_structural   Nd3GaO6
_chemical_formula_sum   'Nd6 Ga2 O12'
_cell_volume   305.68585511
_cell_formula_units_Z   2
loop_
 _symmetry_equiv_pos_site_id
 _symmetry_equiv_pos_as_xyz
  1  'x, y, z'
loop_
 _atom_site_type_symbol
 _atom_site_label
 _atom_site_symmetry_multiplicity
 _atom_site_fract_x
 _atom_site_fract_y
 _atom_site_fract_z
 _atom_site_occupancy
  Nd  Nd0  1  0.40783474  0.80328703  0.32908025  1
  Nd  Nd1  1  0.40590578  0.34293422  0.92623049  1
  Nd  Nd2  1  0.90791208  0.06793728  0.63087821  1
  Nd  Nd3  1  0.40823808  0.80200481  0.82846123  1
  Nd  Nd4  1  0.90676600  0.06835918  0.13130529  1
  Nd  Nd5  1  0.40548107  0.34353718  0.42675981  1
  Ga  Ga6  1  0.90802842  0.56841755  0.13302441  1
  Ga  Ga7  1  0.90765715  0.56687999  0.63294923  1
  O  O8  1  0.13749385  0.40001288  0.18978116  1
  O  O9  1  0.15002471  0.71993196  0.56573963  1
  O  O10  1  0.67460245  0.73417014  0.56587631  1
  O  O11  1  0.13607702  0.40067384  0.69084018  1
  O  O12  1  0.66170132  0.40841115  0.19129783  1
  O  O13  1  0.65465027  0.06956550  0.37894189  1
  O  O14  1  0.65704954  0.07029720  0.87806910  1
  O  O15  1  0.15825449  0.06837153  0.37834021  1
  O  O16  1  0.66320509  0.40682265  0.69073939  1
  O  O17  1  0.67510617  0.73426068  0.06527140  1
  O  O18  1  0.15765718  0.06883638  0.87792730  1
  O  O19  1  0.15160893  0.71968251  0.06483541  1
