# generated using pymatgen
data_Nd3HfSb5
_symmetry_space_group_name_H-M   'P 1'
_cell_length_a   6.22276211
_cell_length_b   9.41154861
_cell_length_c   9.42108440
_cell_angle_alpha   119.87078857
_cell_angle_beta   89.98672485
_cell_angle_gamma   89.93743134
_symmetry_Int_Tables_number   1
_chemical_formula_structural   Nd3HfSb5
_chemical_formula_sum   'Nd6 Hf2 Sb10'
_cell_volume   478.45309801
_cell_formula_units_Z   2
loop_
 _symmetry_equiv_pos_site_id
 _symmetry_equiv_pos_as_xyz
  1  'x, y, z'
loop_
 _atom_site_type_symbol
 _atom_site_label
 _atom_site_symmetry_multiplicity
 _atom_site_fract_x
 _atom_site_fract_y
 _atom_site_fract_z
 _atom_site_occupancy
  Nd  Nd0  1  0.50532800  0.63616776  0.10298264  1
  Nd  Nd1  1  0.25590968  0.01772640  0.48993811  1
  Nd  Nd2  1  0.75654083  0.01936492  0.10291339  1
  Nd  Nd3  1  0.75597978  0.63619429  0.49045390  1
  Nd  Nd4  1  0.75613135  0.25191590  0.71870655  1
  Nd  Nd5  1  0.25567096  0.25109348  0.10322298  1
  Hf  Hf6  1  0.00699461  0.63527966  0.10324046  1
  Hf  Hf7  1  0.25612158  0.63609129  0.71881819  1
  Sb  Sb8  1  0.00727844  0.30274341  0.43955994  1
  Sb  Sb9  1  0.75773567  0.36996433  0.10406446  1
  Sb  Sb10  1  0.25496027  0.90079498  0.10310431  1
  Sb  Sb11  1  0.25485733  0.37318611  0.83175421  1
  Sb  Sb12  1  0.00857708  0.96737111  0.77185303  1
  Sb  Sb13  1  0.50689805  0.30342942  0.43913084  1
  Sb  Sb14  1  0.75673294  0.90445209  0.37277007  1
  Sb  Sb15  1  0.75708914  0.63639581  0.83333111  1
  Sb  Sb16  1  0.50561100  0.96674913  0.77120191  1
  Sb  Sb17  1  0.25496674  0.63553202  0.37650225  1
