# generated using pymatgen
data_Nd5AgS8
_symmetry_space_group_name_H-M   'P 1'
_cell_length_a   7.37969923
_cell_length_b   7.40483713
_cell_length_c   7.39939642
_cell_angle_alpha   108.95462799
_cell_angle_beta   109.19541931
_cell_angle_gamma   109.78374481
_symmetry_Int_Tables_number   1
_chemical_formula_structural   Nd5AgS8
_chemical_formula_sum   'Nd5 Ag1 S8'
_cell_volume   313.08052643
_cell_formula_units_Z   1
loop_
 _symmetry_equiv_pos_site_id
 _symmetry_equiv_pos_as_xyz
  1  'x, y, z'
loop_
 _atom_site_type_symbol
 _atom_site_label
 _atom_site_symmetry_multiplicity
 _atom_site_fract_x
 _atom_site_fract_y
 _atom_site_fract_z
 _atom_site_occupancy
  Nd  Nd0  1  0.94610840  0.13602482  0.00885791  1
  Nd  Nd1  1  0.82208717  0.26744115  0.50945455  1
  Nd  Nd2  1  0.07258920  0.76994133  0.26072353  1
  Nd  Nd3  1  0.44645616  0.39147109  0.76109290  1
  Nd  Nd4  1  0.57150602  0.64206088  0.38610297  1
  Ag  Ag5  1  0.32165134  0.89054358  0.88624018  1
  S  S6  1  0.19459814  0.50724173  0.99066466  1
  S  S7  1  0.70801586  0.38436496  0.13792996  1
  S  S8  1  0.05093757  0.01733086  0.63195598  1
  S  S9  1  0.19554326  0.50844473  0.48853892  1
  S  S10  1  0.55389529  0.01918401  0.63394344  1
  S  S11  1  0.83022565  0.65182143  0.77307945  1
  S  S12  1  0.69654816  0.87150449  0.13332656  1
  S  S13  1  0.34891552  0.16913326  0.28089753  1
