# generated using pymatgen
data_NdAlCo4
_symmetry_space_group_name_H-M   'P 1'
_cell_length_a   3.90500617
_cell_length_b   5.16306162
_cell_length_c   5.18078375
_cell_angle_alpha   60.54353333
_cell_angle_beta   89.64541626
_cell_angle_gamma   90.13053894
_symmetry_Int_Tables_number   1
_chemical_formula_structural   NdAlCo4
_chemical_formula_sum   'Nd1 Al1 Co4'
_cell_volume   90.94762690
_cell_formula_units_Z   1
loop_
 _symmetry_equiv_pos_site_id
 _symmetry_equiv_pos_as_xyz
  1  'x, y, z'
loop_
 _atom_site_type_symbol
 _atom_site_label
 _atom_site_symmetry_multiplicity
 _atom_site_fract_x
 _atom_site_fract_y
 _atom_site_fract_z
 _atom_site_occupancy
  Nd  Nd0  1  0.93194926  0.28596252  0.42213383  1
  Al  Al1  1  0.93200541  0.95326132  0.08569080  1
  Co  Co2  1  0.43246242  0.78431952  0.91863161  1
  Co  Co3  1  0.43234327  0.78450000  0.42772809  1
  Co  Co4  1  0.43212345  0.29134345  0.91887921  1
  Co  Co5  1  0.93229514  0.61809504  0.75660628  1
