# generated using pymatgen
data_NdAlPd2
_symmetry_space_group_name_H-M   'P 1'
_cell_length_a   5.92088842
_cell_length_b   7.22627068
_cell_length_c   7.50293922
_cell_angle_alpha   89.95333099
_cell_angle_beta   89.82858276
_cell_angle_gamma   89.96977234
_symmetry_Int_Tables_number   1
_chemical_formula_structural   NdAlPd2
_chemical_formula_sum   'Nd4 Al4 Pd8'
_cell_volume   321.01873796
_cell_formula_units_Z   4
loop_
 _symmetry_equiv_pos_site_id
 _symmetry_equiv_pos_as_xyz
  1  'x, y, z'
loop_
 _atom_site_type_symbol
 _atom_site_label
 _atom_site_symmetry_multiplicity
 _atom_site_fract_x
 _atom_site_fract_y
 _atom_site_fract_z
 _atom_site_occupancy
  Nd  Nd0  1  0.02455585  0.64418834  0.88985455  1
  Nd  Nd1  1  0.32959101  0.14391342  0.83405340  1
  Nd  Nd2  1  0.52457255  0.14401710  0.33295467  1
  Nd  Nd3  1  0.82879984  0.64376706  0.38875431  1
  Al  Al4  1  0.83019799  0.14379987  0.98178637  1
  Al  Al5  1  0.02498024  0.14390761  0.48174995  1
  Al  Al6  1  0.32919464  0.64348775  0.24415486  1
  Al  Al7  1  0.52500314  0.64402300  0.74482691  1
  Pd  Pd8  1  0.76693583  0.94508779  0.68286413  1
  Pd  Pd9  1  0.76594633  0.34060812  0.68280566  1
  Pd  Pd10  1  0.58763057  0.83978802  0.04090747  1
  Pd  Pd11  1  0.08764674  0.94563359  0.18309450  1
  Pd  Pd12  1  0.08737352  0.34005713  0.18301055  1
  Pd  Pd13  1  0.58763438  0.44519380  0.04098159  1
  Pd  Pd14  1  0.26812756  0.44462451  0.54068434  1
  Pd  Pd15  1  0.26795518  0.83996189  0.54080725  1
