# generated using pymatgen
data_NdAs
_symmetry_space_group_name_H-M   'P 1'
_cell_length_a   4.28506613
_cell_length_b   4.25051355
_cell_length_c   4.23794794
_cell_angle_alpha   59.89752197
_cell_angle_beta   59.78665543
_cell_angle_gamma   59.64178467
_symmetry_Int_Tables_number   1
_chemical_formula_structural   NdAs
_chemical_formula_sum   'Nd1 As1'
_cell_volume   54.30178220
_cell_formula_units_Z   1
loop_
 _symmetry_equiv_pos_site_id
 _symmetry_equiv_pos_as_xyz
  1  'x, y, z'
loop_
 _atom_site_type_symbol
 _atom_site_label
 _atom_site_symmetry_multiplicity
 _atom_site_fract_x
 _atom_site_fract_y
 _atom_site_fract_z
 _atom_site_occupancy
  Nd  Nd0  1  0.13050689  0.61827463  0.37308902  1
  As  As1  1  0.63057405  0.11775815  0.87314850  1
