# generated using pymatgen
data_NdCuSO
_symmetry_space_group_name_H-M   'P 1'
_cell_length_a   3.93328857
_cell_length_b   3.97619772
_cell_length_c   9.02501965
_cell_angle_alpha   102.64539337
_cell_angle_beta   102.27796936
_cell_angle_gamma   89.98951721
_symmetry_Int_Tables_number   1
_chemical_formula_structural   NdCuSO
_chemical_formula_sum   'Nd2 Cu2 S2 O2'
_cell_volume   134.41403018
_cell_formula_units_Z   2
loop_
 _symmetry_equiv_pos_site_id
 _symmetry_equiv_pos_as_xyz
  1  'x, y, z'
loop_
 _atom_site_type_symbol
 _atom_site_label
 _atom_site_symmetry_multiplicity
 _atom_site_fract_x
 _atom_site_fract_y
 _atom_site_fract_z
 _atom_site_occupancy
  Nd  Nd0  1  0.10556029  0.72438383  0.63330621  1
  Nd  Nd1  1  0.35272038  0.47013965  0.12885922  1
  Cu  Cu2  1  0.94674009  0.06645916  0.31778750  1
  Cu  Cu3  1  0.69440138  0.31195655  0.81574422  1
  S  S4  1  0.55301255  0.17174533  0.53265309  1
  S  S5  1  0.75057817  0.86576003  0.92607200  1
  O  O6  1  0.94872111  0.56704950  0.31871662  1
  O  O7  1  0.39186198  0.01448664  0.21330120  1
