# generated using pymatgen
data_NdCuSi
_symmetry_space_group_name_H-M   'P 1'
_cell_length_a   4.08711433
_cell_length_b   4.14602089
_cell_length_c   4.09166336
_cell_angle_alpha   120.13957977
_cell_angle_beta   89.91845703
_cell_angle_gamma   89.67584229
_symmetry_Int_Tables_number   1
_chemical_formula_structural   NdCuSi
_chemical_formula_sum   'Nd1 Cu1 Si1'
_cell_volume   59.95894956
_cell_formula_units_Z   1
loop_
 _symmetry_equiv_pos_site_id
 _symmetry_equiv_pos_as_xyz
  1  'x, y, z'
loop_
 _atom_site_type_symbol
 _atom_site_label
 _atom_site_symmetry_multiplicity
 _atom_site_fract_x
 _atom_site_fract_y
 _atom_site_fract_z
 _atom_site_occupancy
  Nd  Nd0  1  0.99991089  0.87384504  0.40507370  1
  Cu  Cu1  1  0.50001723  0.20642853  0.07125037  1
  Si  Si2  1  0.49935400  0.54070902  0.73898369  1
