# generated using pymatgen
data_NdGa2Co3
_symmetry_space_group_name_H-M   'P 1'
_cell_length_a   3.84510493
_cell_length_b   9.18747902
_cell_length_c   9.21422195
_cell_angle_alpha   119.69087982
_cell_angle_beta   89.68746948
_cell_angle_gamma   89.93415070
_symmetry_Int_Tables_number   1
_chemical_formula_structural   NdGa2Co3
_chemical_formula_sum   'Nd3 Ga6 Co9'
_cell_volume   282.76620468
_cell_formula_units_Z   3
loop_
 _symmetry_equiv_pos_site_id
 _symmetry_equiv_pos_as_xyz
  1  'x, y, z'
loop_
 _atom_site_type_symbol
 _atom_site_label
 _atom_site_symmetry_multiplicity
 _atom_site_fract_x
 _atom_site_fract_y
 _atom_site_fract_z
 _atom_site_occupancy
  Nd  Nd0  1  0.71279967  0.70597887  0.37596074  1
  Nd  Nd1  1  0.21268766  0.37972674  0.74234086  1
  Nd  Nd2  1  0.71268129  0.04322391  0.03692289  1
  Ga  Ga3  1  0.71264094  0.05226754  0.70153224  1
  Ga  Ga4  1  0.71246797  0.02389797  0.35037428  1
  Ga  Ga5  1  0.71279293  0.37653410  0.39252689  1
  Ga  Ga6  1  0.71264172  0.37930369  0.02864523  1
  Ga  Ga7  1  0.71251929  0.69479072  0.02720736  1
  Ga  Ga8  1  0.71281815  0.69396925  0.71205950  1
  Co  Co9  1  0.21249318  0.01909645  0.51364046  1
  Co  Co10  1  0.71261567  0.21746694  0.54793555  1
  Co  Co11  1  0.21259403  0.87820208  0.20191014  1
  Co  Co12  1  0.21255589  0.74885708  0.89333355  1
  Co  Co13  1  0.21260065  0.37643686  0.20620888  1
  Co  Co14  1  0.21254420  0.57470852  0.08971494  1
  Co  Co15  1  0.21229601  0.87203526  0.70135885  1
  Co  Co16  1  0.21249571  0.55157381  0.53184891  1
  Co  Co17  1  0.21260670  0.19833043  0.35542148  1
