# generated using pymatgen
data_NdInPt
_symmetry_space_group_name_H-M   'P 1'
_cell_length_a   4.09088612
_cell_length_b   7.68767643
_cell_length_c   7.71035910
_cell_angle_alpha   119.95005798
_cell_angle_beta   90.05265045
_cell_angle_gamma   90.10443878
_symmetry_Int_Tables_number   1
_chemical_formula_structural   NdInPt
_chemical_formula_sum   'Nd3 In3 Pt3'
_cell_volume   210.10402455
_cell_formula_units_Z   3
loop_
 _symmetry_equiv_pos_site_id
 _symmetry_equiv_pos_as_xyz
  1  'x, y, z'
loop_
 _atom_site_type_symbol
 _atom_site_label
 _atom_site_symmetry_multiplicity
 _atom_site_fract_x
 _atom_site_fract_y
 _atom_site_fract_z
 _atom_site_occupancy
  Nd  Nd0  1  0.44302619  0.25794047  0.23181175  1
  Nd  Nd1  1  0.44287536  0.84446973  0.40644845  1
  Nd  Nd2  1  0.44310400  0.42965817  0.81872004  1
  In  In3  1  0.94311750  0.59236550  0.56844860  1
  In  In4  1  0.94308019  0.84320098  0.06938218  1
  In  In5  1  0.94293433  0.09420191  0.81861448  1
  Pt  Pt6  1  0.44309932  0.84409004  0.81838852  1
  Pt  Pt7  1  0.94335026  0.50936246  0.15188421  1
  Pt  Pt8  1  0.94303298  0.17674375  0.48493925  1
