# generated using pymatgen
data_NdMgHg2
_symmetry_space_group_name_H-M   'P 1'
_cell_length_a   5.21162462
_cell_length_b   5.19877815
_cell_length_c   5.19269848
_cell_angle_alpha   59.82998276
_cell_angle_beta   60.03479385
_cell_angle_gamma   60.10932922
_symmetry_Int_Tables_number   1
_chemical_formula_structural   NdMgHg2
_chemical_formula_sum   'Nd1 Mg1 Hg2'
_cell_volume   99.46309909
_cell_formula_units_Z   1
loop_
 _symmetry_equiv_pos_site_id
 _symmetry_equiv_pos_as_xyz
  1  'x, y, z'
loop_
 _atom_site_type_symbol
 _atom_site_label
 _atom_site_symmetry_multiplicity
 _atom_site_fract_x
 _atom_site_fract_y
 _atom_site_fract_z
 _atom_site_occupancy
  Nd  Nd0  1  0.23859876  0.09363917  0.07011412  1
  Mg  Mg1  1  0.73822111  0.59326327  0.56990695  1
  Hg  Hg2  1  0.98844999  0.84367514  0.81971544  1
  Hg  Hg3  1  0.48840001  0.34357461  0.31992039  1
