# generated using pymatgen
data_NdMgTl
_symmetry_space_group_name_H-M   'P 1'
_cell_length_a   4.80930662
_cell_length_b   7.70309162
_cell_length_c   7.68755770
_cell_angle_alpha   119.78825378
_cell_angle_beta   89.85579681
_cell_angle_gamma   89.96258545
_symmetry_Int_Tables_number   1
_chemical_formula_structural   NdMgTl
_chemical_formula_sum   'Nd3 Mg3 Tl3'
_cell_volume   247.16492113
_cell_formula_units_Z   3
loop_
 _symmetry_equiv_pos_site_id
 _symmetry_equiv_pos_as_xyz
  1  'x, y, z'
loop_
 _atom_site_type_symbol
 _atom_site_label
 _atom_site_symmetry_multiplicity
 _atom_site_fract_x
 _atom_site_fract_y
 _atom_site_fract_z
 _atom_site_occupancy
  Nd  Nd0  1  0.44713593  0.36517203  0.33155110  1
  Nd  Nd1  1  0.44737083  0.93688202  0.76033604  1
  Nd  Nd2  1  0.44752389  0.79507929  0.18850471  1
  Mg  Mg3  1  0.94766653  0.36497402  0.99826902  1
  Mg  Mg4  1  0.94720799  0.60548800  0.76155782  1
  Mg  Mg5  1  0.94703078  0.12368963  0.51948631  1
  Tl  Tl6  1  0.94755715  0.03291285  0.09444559  1
  Tl  Tl7  1  0.94711566  0.69837642  0.42551970  1
  Tl  Tl8  1  0.44746080  0.36508778  0.76188517  1
