# generated using pymatgen
data_NdNiSnH2
_symmetry_space_group_name_H-M   'P 1'
_cell_length_a   4.34388351
_cell_length_b   4.32751942
_cell_length_c   8.55238628
_cell_angle_alpha   89.85407257
_cell_angle_beta   90.00305176
_cell_angle_gamma   120.47754669
_symmetry_Int_Tables_number   1
_chemical_formula_structural   NdNiSnH2
_chemical_formula_sum   'Nd2 Ni2 Sn2 H4'
_cell_volume   138.55533163
_cell_formula_units_Z   2
loop_
 _symmetry_equiv_pos_site_id
 _symmetry_equiv_pos_as_xyz
  1  'x, y, z'
loop_
 _atom_site_type_symbol
 _atom_site_label
 _atom_site_symmetry_multiplicity
 _atom_site_fract_x
 _atom_site_fract_y
 _atom_site_fract_z
 _atom_site_occupancy
  Nd  Nd0  1  0.78902549  0.02297961  0.69614553  1
  Nd  Nd1  1  0.78880221  0.02236809  0.19600028  1
  Ni  Ni2  1  0.12092123  0.68912184  0.44346192  1
  Ni  Ni3  1  0.45492074  0.35539794  0.94367063  1
  Sn  Sn4  1  0.45469281  0.35572127  0.44509983  1
  Sn  Sn5  1  0.12159675  0.68922311  0.94394261  1
  H  H6  1  0.45471343  0.35527131  0.74878454  1
  H  H7  1  0.12083163  0.68941802  0.24854468  1
  H  H8  1  0.45469728  0.35556272  0.13115521  1
  H  H9  1  0.12164822  0.68906367  0.63210005  1
