# generated using pymatgen
data_NdTlZn
_symmetry_space_group_name_H-M   'P 1'
_cell_length_a   4.78064537
_cell_length_b   4.77024889
_cell_length_c   7.69488192
_cell_angle_alpha   90.08504486
_cell_angle_beta   89.85285187
_cell_angle_gamma   120.36183929
_symmetry_Int_Tables_number   1
_chemical_formula_structural   NdTlZn
_chemical_formula_sum   'Nd2 Tl2 Zn2'
_cell_volume   151.41316796
_cell_formula_units_Z   2
loop_
 _symmetry_equiv_pos_site_id
 _symmetry_equiv_pos_as_xyz
  1  'x, y, z'
loop_
 _atom_site_type_symbol
 _atom_site_label
 _atom_site_symmetry_multiplicity
 _atom_site_fract_x
 _atom_site_fract_y
 _atom_site_fract_z
 _atom_site_occupancy
  Nd  Nd0  1  0.50883001  0.63153869  0.06284831  1
  Nd  Nd1  1  0.50903910  0.63194990  0.56274748  1
  Tl  Tl2  1  0.84260404  0.29840508  0.81398374  1
  Tl  Tl3  1  0.17575656  0.96501815  0.31398687  1
  Zn  Zn4  1  0.84253567  0.29835293  0.31355321  1
  Zn  Zn5  1  0.17547290  0.96478522  0.81330693  1
