# generated using pymatgen
data_Ni2SnP
_symmetry_space_group_name_H-M   'P 1'
_cell_length_a   3.76648068
_cell_length_b   6.32420969
_cell_length_c   9.63192558
_cell_angle_alpha   101.23154449
_cell_angle_beta   90.05379486
_cell_angle_gamma   90.05003357
_symmetry_Int_Tables_number   1
_chemical_formula_structural   Ni2SnP
_chemical_formula_sum   'Ni8 Sn4 P4'
_cell_volume   225.03829205
_cell_formula_units_Z   4
loop_
 _symmetry_equiv_pos_site_id
 _symmetry_equiv_pos_as_xyz
  1  'x, y, z'
loop_
 _atom_site_type_symbol
 _atom_site_label
 _atom_site_symmetry_multiplicity
 _atom_site_fract_x
 _atom_site_fract_y
 _atom_site_fract_z
 _atom_site_occupancy
  Ni  Ni0  1  0.34172508  0.43153286  0.30813977  1
  Ni  Ni1  1  0.84156919  0.93018359  0.30719101  1
  Ni  Ni2  1  0.84163225  0.64541841  0.47022066  1
  Ni  Ni3  1  0.84137487  0.14017197  0.97019756  1
  Ni  Ni4  1  0.34133321  0.64350146  0.97022080  1
  Ni  Ni5  1  0.34125459  0.14488249  0.47046950  1
  Ni  Ni6  1  0.34140822  0.92971420  0.80928010  1
  Ni  Ni7  1  0.84123212  0.42890203  0.80760098  1
  Sn  Sn8  1  0.34185767  0.53522253  0.63735604  1
  Sn  Sn9  1  0.34216064  0.03250518  0.13767517  1
  Sn  Sn10  1  0.84146744  0.53014433  0.13799423  1
  Sn  Sn11  1  0.84182918  0.03266215  0.63849854  1
  P  P12  1  0.84167111  0.78662741  0.88633901  1
  P  P13  1  0.84180683  0.28768098  0.38219425  1
  P  P14  1  0.34139422  0.28738061  0.88694662  1
  P  P15  1  0.34181669  0.78838539  0.38613242  1
