# generated using pymatgen
data_Ni3(Sn2Pt)2
_symmetry_space_group_name_H-M   'P 1'
_cell_length_a   3.95879889
_cell_length_b   5.84881020
_cell_length_c   6.90642452
_cell_angle_alpha   83.73432159
_cell_angle_beta   90.23155212
_cell_angle_gamma   90.00221252
_symmetry_Int_Tables_number   1
_chemical_formula_structural   Ni3(Sn2Pt)2
_chemical_formula_sum   'Ni3 Sn4 Pt2'
_cell_volume   158.95662101
_cell_formula_units_Z   1
loop_
 _symmetry_equiv_pos_site_id
 _symmetry_equiv_pos_as_xyz
  1  'x, y, z'
loop_
 _atom_site_type_symbol
 _atom_site_label
 _atom_site_symmetry_multiplicity
 _atom_site_fract_x
 _atom_site_fract_y
 _atom_site_fract_z
 _atom_site_occupancy
  Ni  Ni0  1  0.61938554  0.74449462  0.18471782  1
  Ni  Ni1  1  0.61954319  0.55117655  0.52879888  1
  Ni  Ni2  1  0.11937295  0.01641976  0.02865687  1
  Sn  Sn3  1  0.11936474  0.84403545  0.39727113  1
  Sn  Sn4  1  0.61980152  0.82177073  0.81887305  1
  Sn  Sn5  1  0.11988694  0.46440804  0.12285617  1
  Sn  Sn6  1  0.11870167  0.27520305  0.62243348  1
  Pt  Pt7  1  0.61873913  0.31657228  0.89594936  1
  Pt  Pt8  1  0.61927873  0.18459105  0.31970689  1
