# generated using pymatgen
data_Ni3OF5
_symmetry_space_group_name_H-M   'P 1'
_cell_length_a   5.65579605
_cell_length_b   5.64251137
_cell_length_c   7.27869272
_cell_angle_alpha   73.59399414
_cell_angle_beta   73.57815552
_cell_angle_gamma   73.41260529
_symmetry_Int_Tables_number   1
_chemical_formula_structural   Ni3OF5
_chemical_formula_sum   'Ni6 O2 F10'
_cell_volume   208.33124362
_cell_formula_units_Z   2
loop_
 _symmetry_equiv_pos_site_id
 _symmetry_equiv_pos_as_xyz
  1  'x, y, z'
loop_
 _atom_site_type_symbol
 _atom_site_label
 _atom_site_symmetry_multiplicity
 _atom_site_fract_x
 _atom_site_fract_y
 _atom_site_fract_z
 _atom_site_occupancy
  Ni  Ni0  1  0.25216556  0.21051766  0.76951486  1
  Ni  Ni1  1  0.58027536  0.54022604  0.42767555  1
  Ni  Ni2  1  0.57970172  0.54093844  0.92850834  1
  Ni  Ni3  1  0.91227520  0.87303394  0.60311884  1
  Ni  Ni4  1  0.91005206  0.86927164  0.08999676  1
  Ni  Ni5  1  0.24709786  0.20818397  0.25842792  1
  O  O6  1  0.81167793  0.76957095  0.89337271  1
  O  O7  1  0.35393932  0.31119868  0.96553612  1
  F  F8  1  0.01428213  0.97177273  0.29755762  1
  F  F9  1  0.60991710  0.18017635  0.59442031  1
  F  F10  1  0.88557768  0.23409368  0.92740935  1
  F  F11  1  0.27337453  0.84823561  0.92746753  1
  F  F12  1  0.48153418  0.43941659  0.22502494  1
  F  F13  1  0.15084612  0.11206524  0.55782127  1
  F  F14  1  0.94230705  0.51348048  0.26040733  1
  F  F15  1  0.68253320  0.64132893  0.63041168  1
  F  F16  1  0.21933454  0.56857580  0.59418684  1
  F  F17  1  0.55299604  0.90274304  0.26082110  1
