# generated using pymatgen
data_Ni3Pt
_symmetry_space_group_name_H-M   'P 1'
_cell_length_a   3.67999864
_cell_length_b   3.67045975
_cell_length_c   3.63624358
_cell_angle_alpha   89.64512634
_cell_angle_beta   89.34082794
_cell_angle_gamma   89.93041992
_symmetry_Int_Tables_number   1
_chemical_formula_structural   Ni3Pt
_chemical_formula_sum   'Ni3 Pt1'
_cell_volume   49.11156063
_cell_formula_units_Z   1
loop_
 _symmetry_equiv_pos_site_id
 _symmetry_equiv_pos_as_xyz
  1  'x, y, z'
loop_
 _atom_site_type_symbol
 _atom_site_label
 _atom_site_symmetry_multiplicity
 _atom_site_fract_x
 _atom_site_fract_y
 _atom_site_fract_z
 _atom_site_occupancy
  Ni  Ni0  1  0.82278413  0.24373385  0.73482603  1
  Ni  Ni1  1  0.32280999  0.74378252  0.73491347  1
  Ni  Ni2  1  0.32265586  0.24397267  0.23442249  1
  Pt  Pt3  1  0.82254392  0.74319494  0.23488687  1
