# generated using pymatgen
data_Ni3P
_symmetry_space_group_name_H-M   'P 1'
_cell_length_a   4.50950193
_cell_length_b   6.61522675
_cell_length_c   6.64712095
_cell_angle_alpha   83.27056885
_cell_angle_beta   69.59127045
_cell_angle_gamma   69.65089417
_symmetry_Int_Tables_number   1
_chemical_formula_structural   Ni3P
_chemical_formula_sum   'Ni12 P4'
_cell_volume   174.24543627
_cell_formula_units_Z   4
loop_
 _symmetry_equiv_pos_site_id
 _symmetry_equiv_pos_as_xyz
  1  'x, y, z'
loop_
 _atom_site_type_symbol
 _atom_site_label
 _atom_site_symmetry_multiplicity
 _atom_site_fract_x
 _atom_site_fract_y
 _atom_site_fract_z
 _atom_site_occupancy
  Ni  Ni0  1  0.57067698  0.50126815  0.74562782  1
  Ni  Ni1  1  0.07145756  0.99985337  0.25231460  1
  Ni  Ni2  1  0.60361755  0.79649127  0.88754290  1
  Ni  Ni3  1  0.53715146  0.35416397  0.43670985  1
  Ni  Ni4  1  0.09019731  0.63336319  0.05961537  1
  Ni  Ni5  1  0.05314871  0.20820059  0.57724935  1
  Ni  Ni6  1  0.90294886  0.64284670  0.43826988  1
  Ni  Ni7  1  0.73967201  0.36593130  0.05667163  1
  Ni  Ni8  1  0.98995727  0.99795318  0.89298624  1
  Ni  Ni9  1  0.57265794  0.00000096  0.25501889  1
  Ni  Ni10  1  0.38506603  0.20549500  0.88910007  1
  Ni  Ni11  1  0.24717358  0.79687601  0.57557070  1
  P  P12  1  0.66099381  0.00391580  0.58153963  1
  P  P13  1  0.07077187  0.50233203  0.74510330  1
  P  P14  1  0.16225754  0.31711656  0.23149584  1
  P  P15  1  0.47906828  0.68057436  0.23262209  1
