# generated using pymatgen
data_Ni3Se2
_symmetry_space_group_name_H-M   'P 1'
_cell_length_a   3.77757978
_cell_length_b   3.77435827
_cell_length_c   5.61750889
_cell_angle_alpha   89.95698547
_cell_angle_beta   90.04569244
_cell_angle_gamma   90.26470184
_symmetry_Int_Tables_number   1
_chemical_formula_structural   Ni3Se2
_chemical_formula_sum   'Ni3 Se2'
_cell_volume   80.09319935
_cell_formula_units_Z   1
loop_
 _symmetry_equiv_pos_site_id
 _symmetry_equiv_pos_as_xyz
  1  'x, y, z'
loop_
 _atom_site_type_symbol
 _atom_site_label
 _atom_site_symmetry_multiplicity
 _atom_site_fract_x
 _atom_site_fract_y
 _atom_site_fract_z
 _atom_site_occupancy
  Ni  Ni0  1  0.26573005  0.42360875  0.29053107  1
  Ni  Ni1  1  0.76618379  0.92389572  0.79285288  1
  Ni  Ni2  1  0.76582170  0.92415851  0.29043895  1
  Se  Se3  1  0.76629043  0.42462710  0.03226460  1
  Se  Se4  1  0.26630095  0.92407966  0.54667366  1
