# generated using pymatgen
data_Ni9BiTeS8
_symmetry_space_group_name_H-M   'P 1'
_cell_length_a   6.28543568
_cell_length_b   6.32083511
_cell_length_c   7.20375586
_cell_angle_alpha   90.53501129
_cell_angle_beta   90.07055664
_cell_angle_gamma   89.69371033
_symmetry_Int_Tables_number   1
_chemical_formula_structural   Ni9BiTeS8
_chemical_formula_sum   'Ni9 Bi1 Te1 S8'
_cell_volume   286.18270919
_cell_formula_units_Z   1
loop_
 _symmetry_equiv_pos_site_id
 _symmetry_equiv_pos_as_xyz
  1  'x, y, z'
loop_
 _atom_site_type_symbol
 _atom_site_label
 _atom_site_symmetry_multiplicity
 _atom_site_fract_x
 _atom_site_fract_y
 _atom_site_fract_z
 _atom_site_occupancy
  Ni  Ni0  1  0.83855355  0.34542525  0.56521386  1
  Ni  Ni1  1  0.52781445  0.68100119  0.16618513  1
  Ni  Ni2  1  0.33481231  0.39006844  0.79207265  1
  Ni  Ni3  1  0.21885468  0.20338307  0.43244830  1
  Ni  Ni4  1  0.33995426  0.85096753  0.58134192  1
  Ni  Ni5  1  0.98697180  0.65872467  0.29575950  1
  Ni  Ni6  1  0.15254357  0.96427232  0.99901217  1
  Ni  Ni7  1  0.63586760  0.04324737  0.32441083  1
  Ni  Ni8  1  0.72067195  0.88757014  0.76882094  1
  Bi  Bi9  1  0.87904239  0.48968226  0.92204630  1
  Te  Te10  1  0.40194327  0.28962749  0.11129984  1
  S  S11  1  0.53500211  0.16730385  0.61241037  1
  S  S12  1  0.68179542  0.71228749  0.47645226  1
  S  S13  1  0.16427647  0.52882457  0.56230438  1
  S  S14  1  0.41062215  0.75118810  0.87029636  1
  S  S15  1  0.27922988  0.88689792  0.29068503  1
  S  S16  1  0.90517998  0.29818249  0.29162350  1
  S  S17  1  0.04258117  0.05709207  0.69740486  1
  S  S18  1  0.80530787  0.88284272  0.09084135  1
