# generated using pymatgen
data_Ni
_symmetry_space_group_name_H-M   'P 1'
_cell_length_a   2.45244312
_cell_length_b   2.43128681
_cell_length_c   4.15952110
_cell_angle_alpha   88.88407898
_cell_angle_beta   89.54596710
_cell_angle_gamma   120.61119843
_symmetry_Int_Tables_number   1
_chemical_formula_structural   Ni
_chemical_formula_sum   Ni2
_cell_volume   21.33661492
_cell_formula_units_Z   2
loop_
 _symmetry_equiv_pos_site_id
 _symmetry_equiv_pos_as_xyz
  1  'x, y, z'
loop_
 _atom_site_type_symbol
 _atom_site_label
 _atom_site_symmetry_multiplicity
 _atom_site_fract_x
 _atom_site_fract_y
 _atom_site_fract_z
 _atom_site_occupancy
  Ni  Ni0  1  0.96121806  0.52462953  0.34266818  1
  Ni  Ni1  1  0.62686896  0.85720444  0.84344339  1
