# generated using pymatgen
data_NiGe2Pd
_symmetry_space_group_name_H-M   'P 1'
_cell_length_a   3.61003661
_cell_length_b   5.58903742
_cell_length_c   6.11121655
_cell_angle_alpha   90.07530212
_cell_angle_beta   89.79489136
_cell_angle_gamma   90.05976868
_symmetry_Int_Tables_number   1
_chemical_formula_structural   NiGe2Pd
_chemical_formula_sum   'Ni2 Ge4 Pd2'
_cell_volume   123.30279022
_cell_formula_units_Z   2
loop_
 _symmetry_equiv_pos_site_id
 _symmetry_equiv_pos_as_xyz
  1  'x, y, z'
loop_
 _atom_site_type_symbol
 _atom_site_label
 _atom_site_symmetry_multiplicity
 _atom_site_fract_x
 _atom_site_fract_y
 _atom_site_fract_z
 _atom_site_occupancy
  Ni  Ni0  1  0.65122437  0.80639988  0.80056477  1
  Ni  Ni1  1  0.65156931  0.30488443  0.67959976  1
  Ge  Ge2  1  0.65138924  0.47531357  0.04838812  1
  Ge  Ge3  1  0.15183516  0.10564542  0.89070839  1
  Ge  Ge4  1  0.65162814  0.97709435  0.42935634  1
  Ge  Ge5  1  0.15166765  0.60687393  0.59281915  1
  Pd  Pd6  1  0.15119945  0.28727192  0.30032843  1
  Pd  Pd7  1  0.15175506  0.78573447  0.17785907  1
