# generated using pymatgen
data_Np(SiPt)2
_symmetry_space_group_name_H-M   'P 1'
_cell_length_a   4.15910959
_cell_length_b   4.15111446
_cell_length_c   9.89457798
_cell_angle_alpha   89.90151978
_cell_angle_beta   89.84806061
_cell_angle_gamma   90.02800751
_symmetry_Int_Tables_number   1
_chemical_formula_structural   Np(SiPt)2
_chemical_formula_sum   'Np2 Si4 Pt4'
_cell_volume   170.82842122
_cell_formula_units_Z   2
loop_
 _symmetry_equiv_pos_site_id
 _symmetry_equiv_pos_as_xyz
  1  'x, y, z'
loop_
 _atom_site_type_symbol
 _atom_site_label
 _atom_site_symmetry_multiplicity
 _atom_site_fract_x
 _atom_site_fract_y
 _atom_site_fract_z
 _atom_site_occupancy
  Np  Np0  1  0.15915802  0.31228778  0.55656511  1
  Np  Np1  1  0.65976322  0.81223810  0.06950594  1
  Si  Si2  1  0.65917206  0.81230748  0.67293084  1
  Si  Si3  1  0.15926480  0.31243536  0.95435452  1
  Si  Si4  1  0.15954240  0.81252754  0.31293720  1
  Si  Si5  1  0.65940261  0.31192517  0.31267375  1
  Pt  Pt6  1  0.65955377  0.31266937  0.81322432  1
  Pt  Pt7  1  0.15914772  0.81225538  0.81385469  1
  Pt  Pt8  1  0.65963036  0.81243229  0.43262646  1
  Pt  Pt9  1  0.15996754  0.31163818  0.19406027  1
