# generated using pymatgen
data_NpAlO3
_symmetry_space_group_name_H-M   'P 1'
_cell_length_a   3.78898525
_cell_length_b   3.78951645
_cell_length_c   3.79575157
_cell_angle_alpha   89.84513092
_cell_angle_beta   89.88482666
_cell_angle_gamma   89.94503021
_symmetry_Int_Tables_number   1
_chemical_formula_structural   NpAlO3
_chemical_formula_sum   'Np1 Al1 O3'
_cell_volume   54.50066864
_cell_formula_units_Z   1
loop_
 _symmetry_equiv_pos_site_id
 _symmetry_equiv_pos_as_xyz
  1  'x, y, z'
loop_
 _atom_site_type_symbol
 _atom_site_label
 _atom_site_symmetry_multiplicity
 _atom_site_fract_x
 _atom_site_fract_y
 _atom_site_fract_z
 _atom_site_occupancy
  Np  Np0  1  0.65327024  0.92985344  0.16834818  1
  Al  Al1  1  0.15358508  0.43015549  0.66904861  1
  O  O2  1  0.15295073  0.42988828  0.16846639  1
  O  O3  1  0.15306954  0.93006456  0.66894239  1
  O  O4  1  0.65275216  0.43053445  0.66887039  1
