# generated using pymatgen
data_P2O5
_symmetry_space_group_name_H-M   'P 1'
_cell_length_a   4.50829220
_cell_length_b   5.12974596
_cell_length_c   7.82941580
_cell_angle_alpha   89.61607361
_cell_angle_beta   89.98603821
_cell_angle_gamma   90.03540039
_symmetry_Int_Tables_number   1
_chemical_formula_structural   P2O5
_chemical_formula_sum   'P4 O10'
_cell_volume   181.06204704
_cell_formula_units_Z   2
loop_
 _symmetry_equiv_pos_site_id
 _symmetry_equiv_pos_as_xyz
  1  'x, y, z'
loop_
 _atom_site_type_symbol
 _atom_site_label
 _atom_site_symmetry_multiplicity
 _atom_site_fract_x
 _atom_site_fract_y
 _atom_site_fract_z
 _atom_site_occupancy
  P  P0  1  0.06125148  0.48412403  0.68122852  1
  P  P1  1  0.07340428  0.98587328  0.39908481  1
  P  P2  1  0.62478483  0.97396612  0.18113898  1
  P  P3  1  0.61641699  0.48243511  0.90003794  1
  O  O4  1  0.16654070  0.23686799  0.53994250  1
  O  O5  1  0.89818084  0.15839013  0.26100355  1
  O  O6  1  0.48335642  0.73802274  0.03979681  1
  O  O7  1  0.36797151  0.51551461  0.75940394  1
  O  O8  1  0.39965039  0.94164783  0.34415969  1
  O  O9  1  0.00554582  0.73668289  0.54047990  1
  O  O10  1  0.89645487  0.77909988  0.24644911  1
  O  O11  1  0.81776029  0.28042033  0.75816947  1
  O  O12  1  0.89917660  0.65840715  0.85186315  1
  O  O13  1  0.51548880  0.23727199  0.03953891  1
