# generated using pymatgen
data_P2Pt
_symmetry_space_group_name_H-M   'P 1'
_cell_length_a   5.86830044
_cell_length_b   5.84620571
_cell_length_c   5.85597897
_cell_angle_alpha   90.02331543
_cell_angle_beta   89.85675049
_cell_angle_gamma   90.03565216
_symmetry_Int_Tables_number   1
_chemical_formula_structural   P2Pt
_chemical_formula_sum   'P8 Pt4'
_cell_volume   200.90209430
_cell_formula_units_Z   4
loop_
 _symmetry_equiv_pos_site_id
 _symmetry_equiv_pos_as_xyz
  1  'x, y, z'
loop_
 _atom_site_type_symbol
 _atom_site_label
 _atom_site_symmetry_multiplicity
 _atom_site_fract_x
 _atom_site_fract_y
 _atom_site_fract_z
 _atom_site_occupancy
  P  P0  1  0.02039389  0.81053954  0.15603632  1
  P  P1  1  0.73577249  0.31033573  0.15622985  1
  P  P2  1  0.02024254  0.09325414  0.65675604  1
  P  P3  1  0.23597229  0.30922177  0.43993592  1
  P  P4  1  0.52075678  0.09406306  0.94007260  1
  P  P5  1  0.23537560  0.59259808  0.94038802  1
  P  P6  1  0.73579478  0.59202814  0.65525299  1
  P  P7  1  0.52062607  0.81016827  0.43925658  1
  Pt  Pt8  1  0.12587036  0.20354043  0.04782974  1
  Pt  Pt9  1  0.62604320  0.70261699  0.04657353  1
  Pt  Pt10  1  0.62608844  0.20320439  0.54723573  1
  Pt  Pt11  1  0.12635088  0.70247400  0.54590148  1
