# generated using pymatgen
data_P4Ru
_symmetry_space_group_name_H-M   'P 1'
_cell_length_a   4.85189056
_cell_length_b   5.02367830
_cell_length_c   6.61647558
_cell_angle_alpha   89.83362579
_cell_angle_beta   89.07559204
_cell_angle_gamma   91.17227936
_symmetry_Int_Tables_number   1
_chemical_formula_structural   P4Ru
_chemical_formula_sum   'P8 Ru2'
_cell_volume   161.21662479
_cell_formula_units_Z   2
loop_
 _symmetry_equiv_pos_site_id
 _symmetry_equiv_pos_as_xyz
  1  'x, y, z'
loop_
 _atom_site_type_symbol
 _atom_site_label
 _atom_site_symmetry_multiplicity
 _atom_site_fract_x
 _atom_site_fract_y
 _atom_site_fract_z
 _atom_site_occupancy
  P  P0  1  0.36012968  0.05640996  0.40013969  1
  P  P1  1  0.86301583  0.51180255  0.27650684  1
  P  P2  1  0.18380478  0.19098739  0.90068108  1
  P  P3  1  0.25635332  0.69100565  0.14960101  1
  P  P4  1  0.86564273  0.00034383  0.07721438  1
  P  P5  1  0.36360899  0.68960744  0.58284509  1
  P  P6  1  0.68538690  0.55742627  0.77611542  1
  P  P7  1  0.68420857  0.97541791  0.65077299  1
  Ru  Ru8  1  0.52521217  0.33338642  0.09532980  1
  Ru  Ru9  1  0.02592876  0.33098859  0.58544648  1
