# generated using pymatgen
data_Pa3Te
_symmetry_space_group_name_H-M   'P 1'
_cell_length_a   4.63158894
_cell_length_b   4.60940456
_cell_length_c   5.77622843
_cell_angle_alpha   114.16580200
_cell_angle_beta   113.78914642
_cell_angle_gamma   90.19386292
_symmetry_Int_Tables_number   1
_chemical_formula_structural   Pa3Te
_chemical_formula_sum   'Pa3 Te1'
_cell_volume   100.83076843
_cell_formula_units_Z   1
loop_
 _symmetry_equiv_pos_site_id
 _symmetry_equiv_pos_as_xyz
  1  'x, y, z'
loop_
 _atom_site_type_symbol
 _atom_site_label
 _atom_site_symmetry_multiplicity
 _atom_site_fract_x
 _atom_site_fract_y
 _atom_site_fract_z
 _atom_site_occupancy
  Pa  Pa0  1  0.73087597  0.47663945  0.23996411  1
  Pa  Pa1  1  0.23125152  0.97756362  0.23965792  1
  Pa  Pa2  1  0.98065865  0.22771043  0.73968577  1
  Te  Te3  1  0.48118684  0.72726446  0.73955387  1
