# generated using pymatgen
data_PaAgAu2
_symmetry_space_group_name_H-M   'P 1'
_cell_length_a   4.93020153
_cell_length_b   4.92755985
_cell_length_c   4.93920422
_cell_angle_alpha   59.75362015
_cell_angle_beta   59.80900192
_cell_angle_gamma   59.81504440
_symmetry_Int_Tables_number   1
_chemical_formula_structural   PaAgAu2
_chemical_formula_sum   'Pa1 Ag1 Au2'
_cell_volume   84.44776674
_cell_formula_units_Z   1
loop_
 _symmetry_equiv_pos_site_id
 _symmetry_equiv_pos_as_xyz
  1  'x, y, z'
loop_
 _atom_site_type_symbol
 _atom_site_label
 _atom_site_symmetry_multiplicity
 _atom_site_fract_x
 _atom_site_fract_y
 _atom_site_fract_z
 _atom_site_occupancy
  Pa  Pa0  1  0.75893962  0.94298965  0.75890678  1
  Ag  Ag1  1  0.25937068  0.44280741  0.25844863  1
  Au  Au2  1  0.50912279  0.69331282  0.50856650  1
  Au  Au3  1  0.00900680  0.19300087  0.00868963  1
