# generated using pymatgen
data_PaHgAu2
_symmetry_space_group_name_H-M   'P 1'
_cell_length_a   4.98812008
_cell_length_b   4.97880268
_cell_length_c   4.97786140
_cell_angle_alpha   59.76630402
_cell_angle_beta   59.91022491
_cell_angle_gamma   59.94596100
_symmetry_Int_Tables_number   1
_chemical_formula_structural   PaHgAu2
_chemical_formula_sum   'Pa1 Hg1 Au2'
_cell_volume   87.16565742
_cell_formula_units_Z   1
loop_
 _symmetry_equiv_pos_site_id
 _symmetry_equiv_pos_as_xyz
  1  'x, y, z'
loop_
 _atom_site_type_symbol
 _atom_site_label
 _atom_site_symmetry_multiplicity
 _atom_site_fract_x
 _atom_site_fract_y
 _atom_site_fract_z
 _atom_site_occupancy
  Pa  Pa0  1  0.61948627  0.79642820  0.40634909  1
  Hg  Hg1  1  0.11915501  0.29619649  0.90642345  1
  Au  Au2  1  0.87015390  0.04639505  0.65544021  1
  Au  Au3  1  0.37014401  0.54638231  0.15561095  1
