# generated using pymatgen
data_PaNi3
_symmetry_space_group_name_H-M   'P 1'
_cell_length_a   4.42389870
_cell_length_b   5.54905987
_cell_length_c   5.52385616
_cell_angle_alpha   119.87820435
_cell_angle_beta   90.27000427
_cell_angle_gamma   90.06301880
_symmetry_Int_Tables_number   1
_chemical_formula_structural   PaNi3
_chemical_formula_sum   'Pa2 Ni6'
_cell_volume   117.57663363
_cell_formula_units_Z   2
loop_
 _symmetry_equiv_pos_site_id
 _symmetry_equiv_pos_as_xyz
  1  'x, y, z'
loop_
 _atom_site_type_symbol
 _atom_site_label
 _atom_site_symmetry_multiplicity
 _atom_site_fract_x
 _atom_site_fract_y
 _atom_site_fract_z
 _atom_site_occupancy
  Pa  Pa0  1  0.83674288  0.88184196  0.15665194  1
  Pa  Pa1  1  0.33681637  0.54908222  0.48885408  1
  Ni  Ni2  1  0.33608064  0.52176106  0.97859508  1
  Ni  Ni3  1  0.33672547  0.06427386  0.98096955  1
  Ni  Ni4  1  0.33600086  0.06397373  0.51850981  1
  Ni  Ni5  1  0.83634007  0.36597958  0.12275929  1
  Ni  Ni6  1  0.83586985  0.36709630  0.66867715  1
  Ni  Ni7  1  0.83617473  0.91165006  0.66919887  1
