# generated using pymatgen
data_PaSnPd2
_symmetry_space_group_name_H-M   'P 1'
_cell_length_a   4.81029272
_cell_length_b   4.81909418
_cell_length_c   4.81056452
_cell_angle_alpha   59.66032791
_cell_angle_beta   59.77983475
_cell_angle_gamma   59.78127670
_symmetry_Int_Tables_number   1
_chemical_formula_structural   PaSnPd2
_chemical_formula_sum   'Pa1 Sn1 Pd2'
_cell_volume   78.38800169
_cell_formula_units_Z   1
loop_
 _symmetry_equiv_pos_site_id
 _symmetry_equiv_pos_as_xyz
  1  'x, y, z'
loop_
 _atom_site_type_symbol
 _atom_site_label
 _atom_site_symmetry_multiplicity
 _atom_site_fract_x
 _atom_site_fract_y
 _atom_site_fract_z
 _atom_site_occupancy
  Pa  Pa0  1  0.34080908  0.25864631  0.15766239  1
  Sn  Sn1  1  0.84052843  0.75860173  0.65794998  1
  Pd  Pd2  1  0.59073859  0.50892437  0.40789604  1
  Pd  Pd3  1  0.09081244  0.00858361  0.90793520  1
