# generated using pymatgen
data_PdF2
_symmetry_space_group_name_H-M   'P 1'
_cell_length_a   4.95556116
_cell_length_b   5.53462505
_cell_length_c   6.11987257
_cell_angle_alpha   89.92925262
_cell_angle_beta   90.05648804
_cell_angle_gamma   89.89500427
_symmetry_Int_Tables_number   1
_chemical_formula_structural   PdF2
_chemical_formula_sum   'Pd4 F8'
_cell_volume   167.85031170
_cell_formula_units_Z   4
loop_
 _symmetry_equiv_pos_site_id
 _symmetry_equiv_pos_as_xyz
  1  'x, y, z'
loop_
 _atom_site_type_symbol
 _atom_site_label
 _atom_site_symmetry_multiplicity
 _atom_site_fract_x
 _atom_site_fract_y
 _atom_site_fract_z
 _atom_site_occupancy
  Pd  Pd0  1  0.41158256  0.08948121  0.94414818  1
  Pd  Pd1  1  0.41169143  0.58961469  0.21596175  1
  Pd  Pd2  1  0.91176414  0.08964873  0.44392088  1
  Pd  Pd3  1  0.91179353  0.58981121  0.71579754  1
  F  F4  1  0.15151137  0.76199895  0.45685688  1
  F  F5  1  0.17161250  0.76116168  0.95539141  1
  F  F6  1  0.67142469  0.91894770  0.70378572  1
  F  F7  1  0.16966659  0.26150098  0.20251797  1
  F  F8  1  0.67140442  0.41929102  0.45715141  1
  F  F9  1  0.65971243  0.91912436  0.20498087  1
  F  F10  1  0.65838522  0.41930363  0.95716828  1
  F  F11  1  0.15427190  0.26121390  0.70067036  1
