# generated using pymatgen
data_Pm2AgOs
_symmetry_space_group_name_H-M   'P 1'
_cell_length_a   5.10147953
_cell_length_b   5.08860207
_cell_length_c   5.09910965
_cell_angle_alpha   59.75294495
_cell_angle_beta   59.84321213
_cell_angle_gamma   60.03952026
_symmetry_Int_Tables_number   1
_chemical_formula_structural   Pm2AgOs
_chemical_formula_sum   'Pm2 Ag1 Os1'
_cell_volume   93.34046274
_cell_formula_units_Z   1
loop_
 _symmetry_equiv_pos_site_id
 _symmetry_equiv_pos_as_xyz
  1  'x, y, z'
loop_
 _atom_site_type_symbol
 _atom_site_label
 _atom_site_symmetry_multiplicity
 _atom_site_fract_x
 _atom_site_fract_y
 _atom_site_fract_z
 _atom_site_occupancy
  Pm  Pm0  1  0.57354206  0.54407740  0.40752631  1
  Pm  Pm1  1  0.07358630  0.04375689  0.90803081  1
  Ag  Ag2  1  0.82357550  0.79379702  0.65743309  1
  Os  Os3  1  0.32369125  0.29383251  0.15718724  1
