# generated using pymatgen
data_Pm2RuRh
_symmetry_space_group_name_H-M   'P 1'
_cell_length_a   4.96975183
_cell_length_b   4.95173740
_cell_length_c   4.95907927
_cell_angle_alpha   59.73727798
_cell_angle_beta   59.91053391
_cell_angle_gamma   59.98319626
_symmetry_Int_Tables_number   1
_chemical_formula_structural   Pm2RuRh
_chemical_formula_sum   'Pm2 Ru1 Rh1'
_cell_volume   86.05188718
_cell_formula_units_Z   1
loop_
 _symmetry_equiv_pos_site_id
 _symmetry_equiv_pos_as_xyz
  1  'x, y, z'
loop_
 _atom_site_type_symbol
 _atom_site_label
 _atom_site_symmetry_multiplicity
 _atom_site_fract_x
 _atom_site_fract_y
 _atom_site_fract_z
 _atom_site_occupancy
  Pm  Pm0  1  0.43760371  0.23703599  0.89890534  1
  Pm  Pm1  1  0.93720645  0.73682117  0.39877170  1
  Ru  Ru2  1  0.18712763  0.98713338  0.64883047  1
  Rh  Rh3  1  0.68724000  0.48675701  0.14882739  1
