# generated using pymatgen
data_PmDyIn2
_symmetry_space_group_name_H-M   'P 1'
_cell_length_a   5.36866665
_cell_length_b   5.36815739
_cell_length_c   5.36200953
_cell_angle_alpha   59.82505798
_cell_angle_beta   59.89183807
_cell_angle_gamma   59.95700836
_symmetry_Int_Tables_number   1
_chemical_formula_structural   PmDyIn2
_chemical_formula_sum   'Pm1 Dy1 In2'
_cell_volume   109.00106709
_cell_formula_units_Z   1
loop_
 _symmetry_equiv_pos_site_id
 _symmetry_equiv_pos_as_xyz
  1  'x, y, z'
loop_
 _atom_site_type_symbol
 _atom_site_label
 _atom_site_symmetry_multiplicity
 _atom_site_fract_x
 _atom_site_fract_y
 _atom_site_fract_z
 _atom_site_occupancy
  Pm  Pm0  1  0.86468828  0.30113432  0.06040264  1
  Dy  Dy1  1  0.36490825  0.80108374  0.56072307  1
  In  In2  1  0.11489027  0.55100965  0.31046581  1
  In  In3  1  0.61468071  0.05056822  0.81048840  1
