# generated using pymatgen
data_PmErPd2
_symmetry_space_group_name_H-M   'P 1'
_cell_length_a   5.02322054
_cell_length_b   5.01994371
_cell_length_c   5.01516628
_cell_angle_alpha   60.01339722
_cell_angle_beta   59.92158127
_cell_angle_gamma   60.03324890
_symmetry_Int_Tables_number   1
_chemical_formula_structural   PmErPd2
_chemical_formula_sum   'Pm1 Er1 Pd2'
_cell_volume   89.40178521
_cell_formula_units_Z   1
loop_
 _symmetry_equiv_pos_site_id
 _symmetry_equiv_pos_as_xyz
  1  'x, y, z'
loop_
 _atom_site_type_symbol
 _atom_site_label
 _atom_site_symmetry_multiplicity
 _atom_site_fract_x
 _atom_site_fract_y
 _atom_site_fract_z
 _atom_site_occupancy
  Pm  Pm0  1  0.18388520  0.70002556  0.80350113  1
  Er  Er1  1  0.68465573  0.20015745  0.30338231  1
  Pd  Pd2  1  0.43439570  0.94995803  0.05352516  1
  Pd  Pd3  1  0.93450546  0.44993594  0.55385095  1
