# generated using pymatgen
data_PmZnAg2
_symmetry_space_group_name_H-M   'P 1'
_cell_length_a   4.94260073
_cell_length_b   4.93432283
_cell_length_c   4.92982721
_cell_angle_alpha   59.85599136
_cell_angle_beta   59.82591248
_cell_angle_gamma   59.93138504
_symmetry_Int_Tables_number   1
_chemical_formula_structural   PmZnAg2
_chemical_formula_sum   'Pm1 Zn1 Ag2'
_cell_volume   84.76700951
_cell_formula_units_Z   1
loop_
 _symmetry_equiv_pos_site_id
 _symmetry_equiv_pos_as_xyz
  1  'x, y, z'
loop_
 _atom_site_type_symbol
 _atom_site_label
 _atom_site_symmetry_multiplicity
 _atom_site_fract_x
 _atom_site_fract_y
 _atom_site_fract_z
 _atom_site_occupancy
  Pm  Pm0  1  0.03377944  0.85662192  0.97562093  1
  Zn  Zn1  1  0.53387368  0.35641345  0.47533008  1
  Ag  Ag2  1  0.28370190  0.10690360  0.22595091  1
  Ag  Ag3  1  0.78393173  0.60707283  0.72584122  1
