# generated using pymatgen
data_Pr2AlSi
_symmetry_space_group_name_H-M   'P 1'
_cell_length_a   4.15071487
_cell_length_b   4.34799290
_cell_length_c   6.10795593
_cell_angle_alpha   90.51313782
_cell_angle_beta   110.07879639
_cell_angle_gamma   90.20256805
_symmetry_Int_Tables_number   1
_chemical_formula_structural   Pr2AlSi
_chemical_formula_sum   'Pr2 Al1 Si1'
_cell_volume   103.52551801
_cell_formula_units_Z   1
loop_
 _symmetry_equiv_pos_site_id
 _symmetry_equiv_pos_as_xyz
  1  'x, y, z'
loop_
 _atom_site_type_symbol
 _atom_site_label
 _atom_site_symmetry_multiplicity
 _atom_site_fract_x
 _atom_site_fract_y
 _atom_site_fract_z
 _atom_site_occupancy
  Pr  Pr0  1  0.06129690  0.07356841  0.13562456  1
  Pr  Pr1  1  0.76897794  0.57335496  0.55020803  1
  Al  Al2  1  0.35806468  0.07386313  0.72548717  1
  Si  Si3  1  0.48723432  0.57359481  0.98614812  1
