# generated using pymatgen
data_Pr2CdNi2
_symmetry_space_group_name_H-M   'P 1'
_cell_length_a   3.87763953
_cell_length_b   7.59097195
_cell_length_c   7.60419178
_cell_angle_alpha   89.82996368
_cell_angle_beta   89.82405090
_cell_angle_gamma   89.97013855
_symmetry_Int_Tables_number   1
_chemical_formula_structural   Pr2CdNi2
_chemical_formula_sum   'Pr4 Cd2 Ni4'
_cell_volume   223.82771697
_cell_formula_units_Z   2
loop_
 _symmetry_equiv_pos_site_id
 _symmetry_equiv_pos_as_xyz
  1  'x, y, z'
loop_
 _atom_site_type_symbol
 _atom_site_label
 _atom_site_symmetry_multiplicity
 _atom_site_fract_x
 _atom_site_fract_y
 _atom_site_fract_z
 _atom_site_occupancy
  Pr  Pr0  1  0.72113556  0.84549570  0.07021955  1
  Pr  Pr1  1  0.72094852  0.34564835  0.21407892  1
  Pr  Pr2  1  0.72100735  0.69888717  0.56934571  1
  Pr  Pr3  1  0.72078305  0.19966000  0.71381837  1
  Cd  Cd4  1  0.22075900  0.02255558  0.39332920  1
  Cd  Cd5  1  0.22096515  0.52326661  0.89332086  1
  Ni  Ni6  1  0.22081967  0.90287113  0.77576363  1
  Ni  Ni7  1  0.22085018  0.40215492  0.50758249  1
  Ni  Ni8  1  0.22139800  0.13947806  0.00720971  1
  Ni  Ni9  1  0.22050361  0.63929814  0.27489352  1
