# generated using pymatgen
data_Pr3In
_symmetry_space_group_name_H-M   'P 1'
_cell_length_a   5.88002586
_cell_length_b   7.19525051
_cell_length_c   7.21279764
_cell_angle_alpha   119.87561798
_cell_angle_beta   89.91041565
_cell_angle_gamma   90.02236938
_symmetry_Int_Tables_number   1
_chemical_formula_structural   Pr3In
_chemical_formula_sum   'Pr6 In2'
_cell_volume   264.60736181
_cell_formula_units_Z   2
loop_
 _symmetry_equiv_pos_site_id
 _symmetry_equiv_pos_as_xyz
  1  'x, y, z'
loop_
 _atom_site_type_symbol
 _atom_site_label
 _atom_site_symmetry_multiplicity
 _atom_site_fract_x
 _atom_site_fract_y
 _atom_site_fract_z
 _atom_site_occupancy
  Pr  Pr0  1  0.80503941  0.19259448  0.09300488  1
  Pr  Pr1  1  0.80415916  0.71923041  0.09306096  1
  Pr  Pr2  1  0.80525440  0.71972799  0.61894614  1
  Pr  Pr3  1  0.30436173  0.36965701  0.43812147  1
  Pr  Pr4  1  0.30488443  0.89374274  0.43991715  1
  Pr  Pr5  1  0.30474129  0.37006378  0.91580474  1
  In  In6  1  0.30423215  0.87580687  0.93467271  1
  In  In7  1  0.80470383  0.21128447  0.59859169  1
