# generated using pymatgen
data_Pr5Mg
_symmetry_space_group_name_H-M   'P 1'
_cell_length_a   3.58619785
_cell_length_b   3.57508612
_cell_length_c   15.80870914
_cell_angle_alpha   89.91407776
_cell_angle_beta   90.04276276
_cell_angle_gamma   90.24890137
_symmetry_Int_Tables_number   1
_chemical_formula_structural   Pr5Mg
_chemical_formula_sum   'Pr5 Mg1'
_cell_volume   202.68072907
_cell_formula_units_Z   1
loop_
 _symmetry_equiv_pos_site_id
 _symmetry_equiv_pos_as_xyz
  1  'x, y, z'
loop_
 _atom_site_type_symbol
 _atom_site_label
 _atom_site_symmetry_multiplicity
 _atom_site_fract_x
 _atom_site_fract_y
 _atom_site_fract_z
 _atom_site_occupancy
  Pr  Pr0  1  0.40589154  0.08762679  0.04768164  1
  Pr  Pr1  1  0.40656731  0.08757432  0.69556981  1
  Pr  Pr2  1  0.90562773  0.58730143  0.52297157  1
  Pr  Pr3  1  0.40625423  0.08730523  0.34721494  1
  Pr  Pr4  1  0.90644962  0.58750081  0.86874902  1
  Mg  Mg5  1  0.90577078  0.58737606  0.19565138  1
