# generated using pymatgen
data_PrBi2IO4
_symmetry_space_group_name_H-M   'P 1'
_cell_length_a   4.07694435
_cell_length_b   4.06509876
_cell_length_c   9.72210026
_cell_angle_alpha   89.92061615
_cell_angle_beta   89.95449829
_cell_angle_gamma   89.90809631
_symmetry_Int_Tables_number   1
_chemical_formula_structural   PrBi2IO4
_chemical_formula_sum   'Pr1 Bi2 I1 O4'
_cell_volume   161.12571906
_cell_formula_units_Z   1
loop_
 _symmetry_equiv_pos_site_id
 _symmetry_equiv_pos_as_xyz
  1  'x, y, z'
loop_
 _atom_site_type_symbol
 _atom_site_label
 _atom_site_symmetry_multiplicity
 _atom_site_fract_x
 _atom_site_fract_y
 _atom_site_fract_z
 _atom_site_occupancy
  Pr  Pr0  1  0.32027262  0.30619740  0.41269496  1
  Bi  Bi1  1  0.81996316  0.80525970  0.15004952  1
  Bi  Bi2  1  0.81995350  0.80596977  0.68049163  1
  I  I3  1  0.32060215  0.30566037  0.91504115  1
  O  O4  1  0.32007578  0.80530757  0.56991690  1
  O  O5  1  0.81984407  0.30533311  0.56941575  1
  O  O6  1  0.82020169  0.30576706  0.26236555  1
  O  O7  1  0.31985027  0.80602241  0.26185998  1
