# generated using pymatgen
data_PrBrO
_symmetry_space_group_name_H-M   'P 1'
_cell_length_a   4.14986849
_cell_length_b   4.13403702
_cell_length_c   7.56378841
_cell_angle_alpha   89.99864960
_cell_angle_beta   90.05332947
_cell_angle_gamma   89.91468048
_symmetry_Int_Tables_number   1
_chemical_formula_structural   PrBrO
_chemical_formula_sum   'Pr2 Br2 O2'
_cell_volume   129.76196003
_cell_formula_units_Z   2
loop_
 _symmetry_equiv_pos_site_id
 _symmetry_equiv_pos_as_xyz
  1  'x, y, z'
loop_
 _atom_site_type_symbol
 _atom_site_label
 _atom_site_symmetry_multiplicity
 _atom_site_fract_x
 _atom_site_fract_y
 _atom_site_fract_z
 _atom_site_occupancy
  Pr  Pr0  1  0.57355505  0.78246444  0.03245308  1
  Pr  Pr1  1  0.07374689  0.28274056  0.72004628  1
  Br  Br2  1  0.07324401  0.28286129  0.23374987  1
  Br  Br3  1  0.57343262  0.78265893  0.51655370  1
  O  O4  1  0.07338458  0.78283465  0.87570727  1
  O  O5  1  0.57345021  0.28271034  0.87595481  1
