# generated using pymatgen
data_PrCo2B2C
_symmetry_space_group_name_H-M   'P 1'
_cell_length_a   3.70979929
_cell_length_b   3.70262337
_cell_length_c   5.64079094
_cell_angle_alpha   108.91756439
_cell_angle_beta   108.83199310
_cell_angle_gamma   90.01905060
_symmetry_Int_Tables_number   1
_chemical_formula_structural   PrCo2B2C
_chemical_formula_sum   'Pr1 Co2 B2 C1'
_cell_volume   68.89455105
_cell_formula_units_Z   1
loop_
 _symmetry_equiv_pos_site_id
 _symmetry_equiv_pos_as_xyz
  1  'x, y, z'
loop_
 _atom_site_type_symbol
 _atom_site_label
 _atom_site_symmetry_multiplicity
 _atom_site_fract_x
 _atom_site_fract_y
 _atom_site_fract_z
 _atom_site_occupancy
  Pr  Pr0  1  0.39970502  0.24974126  0.38450533  1
  Co  Co1  1  0.15007262  0.50000143  0.88421857  1
  Co  Co2  1  0.64891434  0.00001784  0.88417441  1
  B  B3  1  0.74734247  0.59814864  0.07951454  1
  B  B4  1  0.04819821  0.90072095  0.68712240  1
  C  C5  1  0.89926827  0.74953192  0.38485834  1
