# generated using pymatgen
data_PrCu4Pd
_symmetry_space_group_name_H-M   'P 1'
_cell_length_a   5.12901878
_cell_length_b   5.12401104
_cell_length_c   5.12116528
_cell_angle_alpha   59.60993576
_cell_angle_beta   59.74139786
_cell_angle_gamma   59.63539124
_symmetry_Int_Tables_number   1
_chemical_formula_structural   PrCu4Pd
_chemical_formula_sum   'Pr1 Cu4 Pd1'
_cell_volume   94.43897007
_cell_formula_units_Z   1
loop_
 _symmetry_equiv_pos_site_id
 _symmetry_equiv_pos_as_xyz
  1  'x, y, z'
loop_
 _atom_site_type_symbol
 _atom_site_label
 _atom_site_symmetry_multiplicity
 _atom_site_fract_x
 _atom_site_fract_y
 _atom_site_fract_z
 _atom_site_occupancy
  Pr  Pr0  1  0.41386417  0.44535151  0.42041105  1
  Cu  Cu1  1  0.78939915  0.82149732  0.29064688  1
  Cu  Cu2  1  0.28731972  0.82169473  0.79767317  1
  Cu  Cu3  1  0.78935063  0.31893820  0.79835761  1
  Cu  Cu4  1  0.78886455  0.82116705  0.79703766  1
  Pd  Pd5  1  0.16385856  0.19623920  0.17285547  1
