# generated using pymatgen
data_PrGeRh
_symmetry_space_group_name_H-M   'P 1'
_cell_length_a   4.63808298
_cell_length_b   7.36816978
_cell_length_c   7.44125652
_cell_angle_alpha   90.03268433
_cell_angle_beta   89.96929169
_cell_angle_gamma   90.05297089
_symmetry_Int_Tables_number   1
_chemical_formula_structural   PrGeRh
_chemical_formula_sum   'Pr4 Ge4 Rh4'
_cell_volume   254.29867477
_cell_formula_units_Z   4
loop_
 _symmetry_equiv_pos_site_id
 _symmetry_equiv_pos_as_xyz
  1  'x, y, z'
loop_
 _atom_site_type_symbol
 _atom_site_label
 _atom_site_symmetry_multiplicity
 _atom_site_fract_x
 _atom_site_fract_y
 _atom_site_fract_z
 _atom_site_occupancy
  Pr  Pr0  1  0.78210819  0.57447642  0.93736839  1
  Pr  Pr1  1  0.78229618  0.69784343  0.43782616  1
  Pr  Pr2  1  0.28197092  0.19837210  0.91513866  1
  Pr  Pr3  1  0.28153518  0.07486595  0.41231108  1
  Ge  Ge4  1  0.78216279  0.98748571  0.11775566  1
  Ge  Ge5  1  0.28237203  0.78548235  0.73104686  1
  Ge  Ge6  1  0.78232306  0.28623965  0.61859101  1
  Ge  Ge7  1  0.28236634  0.48742771  0.23104388  1
  Rh  Rh8  1  0.78137255  0.31127429  0.26768658  1
  Rh  Rh9  1  0.78143942  0.96300489  0.76913160  1
  Rh  Rh10  1  0.28150180  0.81114221  0.08212037  1
  Rh  Rh11  1  0.28174081  0.46081564  0.58250040  1
