# generated using pymatgen
data_PrH2
_symmetry_space_group_name_H-M   'P 1'
_cell_length_a   3.92922926
_cell_length_b   3.90496969
_cell_length_c   3.91474700
_cell_angle_alpha   59.59925079
_cell_angle_beta   60.00736237
_cell_angle_gamma   59.93404007
_symmetry_Int_Tables_number   1
_chemical_formula_structural   PrH2
_chemical_formula_sum   'Pr1 H2'
_cell_volume   42.32426755
_cell_formula_units_Z   1
loop_
 _symmetry_equiv_pos_site_id
 _symmetry_equiv_pos_as_xyz
  1  'x, y, z'
loop_
 _atom_site_type_symbol
 _atom_site_label
 _atom_site_symmetry_multiplicity
 _atom_site_fract_x
 _atom_site_fract_y
 _atom_site_fract_z
 _atom_site_occupancy
  Pr  Pr0  1  0.40112108  0.55213642  0.31142509  1
  H  H1  1  0.65141296  0.80226743  0.56164229  1
  H  H2  1  0.15099907  0.30174419  0.06143926  1
