# generated using pymatgen
data_PrIn2Rh
_symmetry_space_group_name_H-M   'P 1'
_cell_length_a   4.41657543
_cell_length_b   5.60204220
_cell_length_c   8.26343060
_cell_angle_alpha   89.87822723
_cell_angle_beta   89.86965942
_cell_angle_gamma   113.10350800
_symmetry_Int_Tables_number   1
_chemical_formula_structural   PrIn2Rh
_chemical_formula_sum   'Pr2 In4 Rh2'
_cell_volume   188.05338842
_cell_formula_units_Z   2
loop_
 _symmetry_equiv_pos_site_id
 _symmetry_equiv_pos_as_xyz
  1  'x, y, z'
loop_
 _atom_site_type_symbol
 _atom_site_label
 _atom_site_symmetry_multiplicity
 _atom_site_fract_x
 _atom_site_fract_y
 _atom_site_fract_z
 _atom_site_occupancy
  Pr  Pr0  1  0.33110076  0.95214915  0.15528910  1
  Pr  Pr1  1  0.46132019  0.21686560  0.65605682  1
  In  In2  1  0.04242115  0.37833703  0.35233063  1
  In  In3  1  0.04280457  0.37809688  0.95828289  1
  In  In4  1  0.75157207  0.79658115  0.85201859  1
  In  In5  1  0.75154018  0.79494381  0.45886520  1
  Rh  Rh6  1  0.17664334  0.64618641  0.65587044  1
  Rh  Rh7  1  0.61458945  0.52236104  0.15502091  1
