# generated using pymatgen
data_PrTlCd
_symmetry_space_group_name_H-M   'P 1'
_cell_length_a   5.05692768
_cell_length_b   5.04899216
_cell_length_c   7.48417139
_cell_angle_alpha   89.99883270
_cell_angle_beta   89.98332977
_cell_angle_gamma   120.14108276
_symmetry_Int_Tables_number   1
_chemical_formula_structural   PrTlCd
_chemical_formula_sum   'Pr2 Tl2 Cd2'
_cell_volume   165.25195253
_cell_formula_units_Z   2
loop_
 _symmetry_equiv_pos_site_id
 _symmetry_equiv_pos_as_xyz
  1  'x, y, z'
loop_
 _atom_site_type_symbol
 _atom_site_label
 _atom_site_symmetry_multiplicity
 _atom_site_fract_x
 _atom_site_fract_y
 _atom_site_fract_z
 _atom_site_occupancy
  Pr  Pr0  1  0.65549386  0.19079679  0.08198962  1
  Pr  Pr1  1  0.65578818  0.19076112  0.58187503  1
  Tl  Tl2  1  0.32285917  0.52328962  0.33211946  1
  Tl  Tl3  1  0.98909527  0.85652643  0.83247036  1
  Cd  Cd4  1  0.98976374  0.85666078  0.33225158  1
  Cd  Cd5  1  0.32258400  0.52360809  0.83184022  1
