# generated using pymatgen
data_Pu2TeO2
_symmetry_space_group_name_H-M   'P 1'
_cell_length_a   3.94739079
_cell_length_b   3.94105148
_cell_length_c   6.92422485
_cell_angle_alpha   106.96340942
_cell_angle_beta   106.81982422
_cell_angle_gamma   90.05904388
_symmetry_Int_Tables_number   1
_chemical_formula_structural   Pu2TeO2
_chemical_formula_sum   'Pu2 Te1 O2'
_cell_volume   98.19422554
_cell_formula_units_Z   1
loop_
 _symmetry_equiv_pos_site_id
 _symmetry_equiv_pos_as_xyz
  1  'x, y, z'
loop_
 _atom_site_type_symbol
 _atom_site_label
 _atom_site_symmetry_multiplicity
 _atom_site_fract_x
 _atom_site_fract_y
 _atom_site_fract_z
 _atom_site_occupancy
  Pu  Pu0  1  0.87638915  0.39158648  0.75443482  1
  Pu  Pu1  1  0.18164027  0.69984645  0.37440065  1
  Te  Te2  1  0.52986169  0.04674925  0.06595533  1
  O  O3  1  0.27896446  0.29649374  0.56661546  1
  O  O4  1  0.77934521  0.79679435  0.56654936  1
