# generated using pymatgen
data_Pu2Zn17
_symmetry_space_group_name_H-M   'P 1'
_cell_length_a   6.87975073
_cell_length_b   6.88676786
_cell_length_c   6.89963675
_cell_angle_alpha   83.88135529
_cell_angle_beta   83.61593628
_cell_angle_gamma   84.18833923
_symmetry_Int_Tables_number   1
_chemical_formula_structural   Pu2Zn17
_chemical_formula_sum   'Pu2 Zn17'
_cell_volume   321.69679200
_cell_formula_units_Z   1
loop_
 _symmetry_equiv_pos_site_id
 _symmetry_equiv_pos_as_xyz
  1  'x, y, z'
loop_
 _atom_site_type_symbol
 _atom_site_label
 _atom_site_symmetry_multiplicity
 _atom_site_fract_x
 _atom_site_fract_y
 _atom_site_fract_z
 _atom_site_occupancy
  Pu  Pu0  1  0.03897460  0.66866231  0.29829296  1
  Pu  Pu1  1  0.54404056  0.17754981  0.80272770  1
  Zn  Zn2  1  0.39894545  0.48677221  0.11261763  1
  Zn  Zn3  1  0.54377425  0.53685457  0.45172855  1
  Zn  Zn4  1  0.54307210  0.67465520  0.80198777  1
  Zn  Zn5  1  0.89481431  0.82679743  0.80389005  1
  Zn  Zn6  1  0.69200897  0.86925513  0.49386755  1
  Zn  Zn7  1  0.85510701  0.49067792  0.65523201  1
  Zn  Zn8  1  0.27927259  0.90607405  0.53789318  1
  Zn  Zn9  1  0.18721493  0.53406185  0.80569315  1
  Zn  Zn10  1  0.23643906  0.32504898  0.49501884  1
  Zn  Zn11  1  0.54302329  0.17409985  0.30448028  1
  Zn  Zn12  1  0.18831667  0.18982248  0.15260354  1
  Zn  Zn13  1  0.79792404  0.43113735  0.05823995  1
  Zn  Zn14  1  0.85456908  0.03280213  0.11178929  1
  Zn  Zn15  1  0.04451288  0.17816624  0.80264670  1
  Zn  Zn16  1  0.54421329  0.82540643  0.15284927  1
  Zn  Zn17  1  0.89521652  0.17804326  0.45178521  1
  Zn  Zn18  1  0.23679899  0.87116081  0.95150250  1
