# generated using pymatgen
data_PuAl2
_symmetry_space_group_name_H-M   'P 1'
_cell_length_a   5.53000212
_cell_length_b   5.53674221
_cell_length_c   5.52727842
_cell_angle_alpha   59.85912704
_cell_angle_beta   59.94248199
_cell_angle_gamma   60.15288925
_symmetry_Int_Tables_number   1
_chemical_formula_structural   PuAl2
_chemical_formula_sum   'Pu2 Al4'
_cell_volume   119.62459649
_cell_formula_units_Z   2
loop_
 _symmetry_equiv_pos_site_id
 _symmetry_equiv_pos_as_xyz
  1  'x, y, z'
loop_
 _atom_site_type_symbol
 _atom_site_label
 _atom_site_symmetry_multiplicity
 _atom_site_fract_x
 _atom_site_fract_y
 _atom_site_fract_z
 _atom_site_occupancy
  Pu  Pu0  1  0.11147650  0.48305312  0.15947330  1
  Pu  Pu1  1  0.86229783  0.23309787  0.91134119  1
  Al  Al2  1  0.48798960  0.35916436  0.53736126  1
  Al  Al3  1  0.48763266  0.85877955  0.53779560  1
  Al  Al4  1  0.98817408  0.85903347  0.53747469  1
  Al  Al5  1  0.48805454  0.85862744  0.03777750  1
