# generated using pymatgen
data_PuPt5
_symmetry_space_group_name_H-M   'P 1'
_cell_length_a   4.46301413
_cell_length_b   5.27535963
_cell_length_c   5.28387785
_cell_angle_alpha   60.46405792
_cell_angle_beta   89.92739105
_cell_angle_gamma   89.89241028
_symmetry_Int_Tables_number   1
_chemical_formula_structural   PuPt5
_chemical_formula_sum   'Pu1 Pt5'
_cell_volume   108.23677138
_cell_formula_units_Z   1
loop_
 _symmetry_equiv_pos_site_id
 _symmetry_equiv_pos_as_xyz
  1  'x, y, z'
loop_
 _atom_site_type_symbol
 _atom_site_label
 _atom_site_symmetry_multiplicity
 _atom_site_fract_x
 _atom_site_fract_y
 _atom_site_fract_z
 _atom_site_occupancy
  Pu  Pu0  1  0.33588845  0.63587546  0.75683743  1
  Pt  Pt1  1  0.83479494  0.63568026  0.25664654  1
  Pt  Pt2  1  0.83524072  0.13592677  0.75658768  1
  Pt  Pt3  1  0.33530700  0.96784729  0.08983336  1
  Pt  Pt4  1  0.33545208  0.30321121  0.42465651  1
  Pt  Pt5  1  0.83485210  0.13645498  0.25627503  1
