# generated using pymatgen
data_Rb2CuCl4
_symmetry_space_group_name_H-M   'P 1'
_cell_length_a   5.57220078
_cell_length_b   5.54802847
_cell_length_c   7.63874578
_cell_angle_alpha   89.70093536
_cell_angle_beta   89.62161255
_cell_angle_gamma   90.03618622
_symmetry_Int_Tables_number   1
_chemical_formula_structural   Rb2CuCl4
_chemical_formula_sum   'Rb2 Cu1 Cl4'
_cell_volume   236.14133333
_cell_formula_units_Z   1
loop_
 _symmetry_equiv_pos_site_id
 _symmetry_equiv_pos_as_xyz
  1  'x, y, z'
loop_
 _atom_site_type_symbol
 _atom_site_label
 _atom_site_symmetry_multiplicity
 _atom_site_fract_x
 _atom_site_fract_y
 _atom_site_fract_z
 _atom_site_occupancy
  Rb  Rb0  1  0.41134784  0.49906144  0.47544441  1
  Rb  Rb1  1  0.91175675  0.49921021  0.97759318  1
  Cu  Cu2  1  0.41329104  0.99937052  0.97827017  1
  Cl  Cl3  1  0.41187480  0.51052219  0.02471284  1
  Cl  Cl4  1  0.91228575  0.99909073  0.42839840  1
  Cl  Cl5  1  0.91232681  0.99833536  0.98771578  1
  Cl  Cl6  1  0.41223505  0.99832731  0.69830626  1
