# generated using pymatgen
data_Rb2GeS3
_symmetry_space_group_name_H-M   'P 1'
_cell_length_a   7.16799402
_cell_length_b   7.33583164
_cell_length_c   8.21412182
_cell_angle_alpha   79.93401337
_cell_angle_beta   83.28584290
_cell_angle_gamma   80.33180237
_symmetry_Int_Tables_number   1
_chemical_formula_structural   Rb2GeS3
_chemical_formula_sum   'Rb4 Ge2 S6'
_cell_volume   417.52651348
_cell_formula_units_Z   2
loop_
 _symmetry_equiv_pos_site_id
 _symmetry_equiv_pos_as_xyz
  1  'x, y, z'
loop_
 _atom_site_type_symbol
 _atom_site_label
 _atom_site_symmetry_multiplicity
 _atom_site_fract_x
 _atom_site_fract_y
 _atom_site_fract_z
 _atom_site_occupancy
  Rb  Rb0  1  0.25203803  0.54247928  0.57914996  1
  Rb  Rb1  1  0.61025411  0.81369710  0.17036258  1
  Rb  Rb2  1  0.75053149  0.08959869  0.57541585  1
  Rb  Rb3  1  0.86124671  0.36327198  0.96804863  1
  Ge  Ge4  1  0.27179086  0.95083112  0.79769123  1
  Ge  Ge5  1  0.26109383  0.24122301  0.25316668  1
  S  S6  1  0.50014359  0.34655893  0.26776850  1
  S  S7  1  0.98790199  0.45179072  0.30798420  1
  S  S8  1  0.52966434  0.72385281  0.79043114  1
  S  S9  1  0.22528844  0.00791822  0.48398706  1
  S  S10  1  0.34306577  0.18752845  0.94034153  1
  S  S11  1  0.01937132  0.88274997  0.93861169  1
