# generated using pymatgen
data_Rb2HgSbI6
_symmetry_space_group_name_H-M   'P 1'
_cell_length_a   8.71601295
_cell_length_b   8.72846413
_cell_length_c   8.71704388
_cell_angle_alpha   59.88707733
_cell_angle_beta   59.83358765
_cell_angle_gamma   59.95251083
_symmetry_Int_Tables_number   1
_chemical_formula_structural   Rb2HgSbI6
_chemical_formula_sum   'Rb2 Hg1 Sb1 I6'
_cell_volume   467.77201172
_cell_formula_units_Z   1
loop_
 _symmetry_equiv_pos_site_id
 _symmetry_equiv_pos_as_xyz
  1  'x, y, z'
loop_
 _atom_site_type_symbol
 _atom_site_label
 _atom_site_symmetry_multiplicity
 _atom_site_fract_x
 _atom_site_fract_y
 _atom_site_fract_z
 _atom_site_occupancy
  Rb  Rb0  1  0.78205967  0.70562667  0.17454748  1
  Rb  Rb1  1  0.28196144  0.20665607  0.67402446  1
  Hg  Hg2  1  0.03131218  0.95683098  0.42416608  1
  Sb  Sb3  1  0.53085643  0.45642462  0.92433929  1
  I  I4  1  0.28470010  0.70273328  0.67701507  1
  I  I5  1  0.28456181  0.21001482  0.17055753  1
  I  I6  1  0.77832174  0.20965998  0.17010526  1
  I  I7  1  0.28451476  0.70397925  0.16934635  1
  I  I8  1  0.77818072  0.70336545  0.67726219  1
  I  I9  1  0.77781320  0.20990646  0.67718959  1
