# generated using pymatgen
data_Rb2LiVS4
_symmetry_space_group_name_H-M   'P 1'
_cell_length_a   5.89127588
_cell_length_b   7.28857136
_cell_length_c   10.99206257
_cell_angle_alpha   102.98661041
_cell_angle_beta   90.07159424
_cell_angle_gamma   90.13800049
_symmetry_Int_Tables_number   1
_chemical_formula_structural   Rb2LiVS4
_chemical_formula_sum   'Rb4 Li2 V2 S8'
_cell_volume   459.91367281
_cell_formula_units_Z   2
loop_
 _symmetry_equiv_pos_site_id
 _symmetry_equiv_pos_as_xyz
  1  'x, y, z'
loop_
 _atom_site_type_symbol
 _atom_site_label
 _atom_site_symmetry_multiplicity
 _atom_site_fract_x
 _atom_site_fract_y
 _atom_site_fract_z
 _atom_site_occupancy
  Rb  Rb0  1  0.82695919  0.27989155  0.04326953  1
  Rb  Rb1  1  0.78970480  0.75802368  0.54427195  1
  Rb  Rb2  1  0.33010444  0.07265063  0.78155822  1
  Rb  Rb3  1  0.28940076  0.54030132  0.29866415  1
  Li  Li4  1  0.05290157  0.03807149  0.30036545  1
  Li  Li5  1  0.55348539  0.77096194  0.03983627  1
  V  V6  1  0.05246514  0.55452365  0.80051219  1
  V  V7  1  0.55245745  0.05264620  0.30050424  1
  S  S8  1  0.26797602  0.57549405  0.63926768  1
  S  S9  1  0.76754570  0.82286137  0.23732041  1
  S  S10  1  0.76802838  0.29606992  0.36374959  1
  S  S11  1  0.84454340  0.80502367  0.86509335  1
  S  S12  1  0.84603280  0.32382816  0.73566574  1
  S  S13  1  0.34504157  0.01271732  0.45078185  1
  S  S14  1  0.26836866  0.51873791  0.95084947  1
  S  S15  1  0.34664816  0.07348602  0.13649891  1
