# generated using pymatgen
data_Rb2LiLaCl6
_symmetry_space_group_name_H-M   'P 1'
_cell_length_a   7.63061523
_cell_length_b   7.64259338
_cell_length_c   7.63107443
_cell_angle_alpha   59.97211838
_cell_angle_beta   59.83180618
_cell_angle_gamma   59.97762299
_symmetry_Int_Tables_number   1
_chemical_formula_structural   Rb2LiLaCl6
_chemical_formula_sum   'Rb2 Li1 La1 Cl6'
_cell_volume   314.16027632
_cell_formula_units_Z   1
loop_
 _symmetry_equiv_pos_site_id
 _symmetry_equiv_pos_as_xyz
  1  'x, y, z'
loop_
 _atom_site_type_symbol
 _atom_site_label
 _atom_site_symmetry_multiplicity
 _atom_site_fract_x
 _atom_site_fract_y
 _atom_site_fract_z
 _atom_site_occupancy
  Rb  Rb0  1  0.95342380  0.08520114  0.26808107  1
  Rb  Rb1  1  0.45255625  0.58523411  0.76802891  1
  Li  Li2  1  0.70295966  0.83541316  0.01732689  1
  La  La3  1  0.20269804  0.33496940  0.51759988  1
  Cl  Cl4  1  0.94403452  0.59452331  0.26000050  1
  Cl  Cl5  1  0.45965049  0.07631685  0.77408725  1
  Cl  Cl6  1  0.45951957  0.59430122  0.25987193  1
  Cl  Cl7  1  0.94334924  0.59475386  0.77477533  1
  Cl  Cl8  1  0.46011055  0.07767836  0.25956318  1
  Cl  Cl9  1  0.94345546  0.07682816  0.77452838  1
