# generated using pymatgen
data_Rb2LiDyBr6
_symmetry_space_group_name_H-M   'P 1'
_cell_length_a   7.86590862
_cell_length_b   7.87393332
_cell_length_c   7.88303566
_cell_angle_alpha   59.96494675
_cell_angle_beta   59.86056137
_cell_angle_gamma   59.85041046
_symmetry_Int_Tables_number   1
_chemical_formula_structural   Rb2LiDyBr6
_chemical_formula_sum   'Rb2 Li1 Dy1 Br6'
_cell_volume   344.39142860
_cell_formula_units_Z   1
loop_
 _symmetry_equiv_pos_site_id
 _symmetry_equiv_pos_as_xyz
  1  'x, y, z'
loop_
 _atom_site_type_symbol
 _atom_site_label
 _atom_site_symmetry_multiplicity
 _atom_site_fract_x
 _atom_site_fract_y
 _atom_site_fract_z
 _atom_site_occupancy
  Rb  Rb0  1  0.04734448  0.26024833  0.58464402  1
  Rb  Rb1  1  0.54686362  0.76078063  0.08419932  1
  Li  Li2  1  0.79643118  0.01069473  0.33444613  1
  Dy  Dy3  1  0.29712427  0.51042086  0.83511645  1
  Br  Br4  1  0.04425577  0.25851080  0.08709437  1
  Br  Br5  1  0.54866582  0.25875601  0.08700048  1
  Br  Br6  1  0.54872465  0.25842917  0.58239788  1
  Br  Br7  1  0.04516512  0.76196492  0.58261335  1
  Br  Br8  1  0.04388225  0.76296461  0.08712387  1
  Br  Br9  1  0.54769373  0.76220310  0.58244681  1
