# generated using pymatgen
data_Rb2Mn3Se4
_symmetry_space_group_name_H-M   'P 1'
_cell_length_a   6.41729546
_cell_length_b   7.84990740
_cell_length_c   12.59751320
_cell_angle_alpha   84.22190857
_cell_angle_beta   75.25141144
_cell_angle_gamma   65.47238159
_symmetry_Int_Tables_number   1
_chemical_formula_structural   Rb2Mn3Se4
_chemical_formula_sum   'Rb4 Mn6 Se8'
_cell_volume   558.30526273
_cell_formula_units_Z   2
loop_
 _symmetry_equiv_pos_site_id
 _symmetry_equiv_pos_as_xyz
  1  'x, y, z'
loop_
 _atom_site_type_symbol
 _atom_site_label
 _atom_site_symmetry_multiplicity
 _atom_site_fract_x
 _atom_site_fract_y
 _atom_site_fract_z
 _atom_site_occupancy
  Rb  Rb0  1  0.49401873  0.91590708  0.74267757  1
  Rb  Rb1  1  0.74096096  0.91573143  0.24622662  1
  Rb  Rb2  1  0.35395911  0.41629025  0.01341774  1
  Rb  Rb3  1  0.11592200  0.91692704  0.50594777  1
  Mn  Mn4  1  0.54456127  0.41588375  0.62937880  1
  Mn  Mn5  1  0.31227615  0.91585070  0.09931079  1
  Mn  Mn6  1  0.67940146  0.41600093  0.35088181  1
  Mn  Mn7  1  0.92815405  0.41603965  0.85103637  1
  Mn  Mn8  1  0.92333585  0.91599959  0.88869619  1
  Mn  Mn9  1  0.16947506  0.41597524  0.37966532  1
  Se  Se10  1  0.01815557  0.11297386  0.99247772  1
  Se  Se11  1  0.71694571  0.72444975  0.99146956  1
  Se  Se12  1  0.76231343  0.61472523  0.49087152  1
  Se  Se13  1  0.11397384  0.21300070  0.25592840  1
  Se  Se14  1  0.17069648  0.61353958  0.74932933  1
  Se  Se15  1  0.36159042  0.61507064  0.25388253  1
  Se  Se16  1  0.82743514  0.21478572  0.74429929  1
  Se  Se17  1  0.48336691  0.22381848  0.49029768  1
