# generated using pymatgen
data_Rb2NaGaCl6
_symmetry_space_group_name_H-M   'P 1'
_cell_length_a   7.30355310
_cell_length_b   7.31129837
_cell_length_c   7.30662394
_cell_angle_alpha   59.91506958
_cell_angle_beta   59.92104721
_cell_angle_gamma   59.98120117
_symmetry_Int_Tables_number   1
_chemical_formula_structural   Rb2NaGaCl6
_chemical_formula_sum   'Rb2 Na1 Ga1 Cl6'
_cell_volume   275.50523931
_cell_formula_units_Z   1
loop_
 _symmetry_equiv_pos_site_id
 _symmetry_equiv_pos_as_xyz
  1  'x, y, z'
loop_
 _atom_site_type_symbol
 _atom_site_label
 _atom_site_symmetry_multiplicity
 _atom_site_fract_x
 _atom_site_fract_y
 _atom_site_fract_z
 _atom_site_occupancy
  Rb  Rb0  1  0.36787882  0.59596443  0.91089135  1
  Rb  Rb1  1  0.86741984  0.09621861  0.41081715  1
  Na  Na2  1  0.61902446  0.84711498  0.16026090  1
  Ga  Ga3  1  0.11769655  0.34665146  0.66039592  1
  Cl  Cl4  1  0.88556314  0.11542632  0.89216459  1
  Cl  Cl5  1  0.34998989  0.11470435  0.42756000  1
  Cl  Cl6  1  0.88568997  0.57776779  0.89149535  1
  Cl  Cl7  1  0.34987986  0.57830495  0.42802522  1
  Cl  Cl8  1  0.35025227  0.11486217  0.89172435  1
  Cl  Cl9  1  0.88510567  0.57848036  0.42795506  1
