# generated using pymatgen
data_Rb2NaCrCl6
_symmetry_space_group_name_H-M   'P 1'
_cell_length_a   7.28422642
_cell_length_b   7.30964088
_cell_length_c   7.29249477
_cell_angle_alpha   60.04839706
_cell_angle_beta   59.79884338
_cell_angle_gamma   59.82685471
_symmetry_Int_Tables_number   1
_chemical_formula_structural   Rb2NaCrCl6
_chemical_formula_sum   'Rb2 Na1 Cr1 Cl6'
_cell_volume   273.88226361
_cell_formula_units_Z   1
loop_
 _symmetry_equiv_pos_site_id
 _symmetry_equiv_pos_as_xyz
  1  'x, y, z'
loop_
 _atom_site_type_symbol
 _atom_site_label
 _atom_site_symmetry_multiplicity
 _atom_site_fract_x
 _atom_site_fract_y
 _atom_site_fract_z
 _atom_site_occupancy
  Rb  Rb0  1  0.44519222  0.14130288  0.85090333  1
  Rb  Rb1  1  0.94489861  0.64228123  0.35064667  1
  Na  Na2  1  0.69528836  0.39291868  0.10040163  1
  Cr  Cr3  1  0.19488247  0.89307547  0.60043871  1
  Cl  Cl4  1  0.96387690  0.12393560  0.83180583  1
  Cl  Cl5  1  0.96409631  0.66281563  0.83183658  1
  Cl  Cl6  1  0.96379769  0.12403701  0.36880460  1
  Cl  Cl7  1  0.42473048  0.12342203  0.36919653  1
  Cl  Cl8  1  0.42501044  0.66257572  0.83140510  1
  Cl  Cl9  1  0.42389151  0.66168296  0.36896768  1
