# generated using pymatgen
data_Rb2NaNdBr6
_symmetry_space_group_name_H-M   'P 1'
_cell_length_a   8.23788166
_cell_length_b   8.25032234
_cell_length_c   8.23501205
_cell_angle_alpha   59.79190826
_cell_angle_beta   59.66957092
_cell_angle_gamma   59.92911148
_symmetry_Int_Tables_number   1
_chemical_formula_structural   Rb2NaNdBr6
_chemical_formula_sum   'Rb2 Na1 Nd1 Br6'
_cell_volume   393.93435219
_cell_formula_units_Z   1
loop_
 _symmetry_equiv_pos_site_id
 _symmetry_equiv_pos_as_xyz
  1  'x, y, z'
loop_
 _atom_site_type_symbol
 _atom_site_label
 _atom_site_symmetry_multiplicity
 _atom_site_fract_x
 _atom_site_fract_y
 _atom_site_fract_z
 _atom_site_occupancy
  Rb  Rb0  1  0.71875250  0.61374861  0.10569562  1
  Rb  Rb1  1  0.21920861  0.11390903  0.60561812  1
  Na  Na2  1  0.96880841  0.86425519  0.35559028  1
  Nd  Nd3  1  0.46863684  0.36347976  0.85513961  1
  Br  Br4  1  0.21991135  0.61367744  0.10378192  1
  Br  Br5  1  0.21953771  0.11437151  0.10438985  1
  Br  Br6  1  0.22001049  0.61336243  0.60631275  1
  Br  Br7  1  0.71810663  0.11488706  0.60612983  1
  Br  Br8  1  0.71801716  0.61327928  0.60595053  1
  Br  Br9  1  0.71820343  0.11500356  0.10423853  1
