# generated using pymatgen
data_Rb2NaCoF6
_symmetry_space_group_name_H-M   'P 1'
_cell_length_a   6.09527636
_cell_length_b   6.11102676
_cell_length_c   6.09869289
_cell_angle_alpha   59.72135544
_cell_angle_beta   59.71477127
_cell_angle_gamma   59.75368500
_symmetry_Int_Tables_number   1
_chemical_formula_structural   Rb2NaCoF6
_chemical_formula_sum   'Rb2 Na1 Co1 F6'
_cell_volume   159.64575340
_cell_formula_units_Z   1
loop_
 _symmetry_equiv_pos_site_id
 _symmetry_equiv_pos_as_xyz
  1  'x, y, z'
loop_
 _atom_site_type_symbol
 _atom_site_label
 _atom_site_symmetry_multiplicity
 _atom_site_fract_x
 _atom_site_fract_y
 _atom_site_fract_z
 _atom_site_occupancy
  Rb  Rb0  1  0.57878858  0.41980091  0.53071713  1
  Rb  Rb1  1  0.07883934  0.91855150  0.03091316  1
  Na  Na2  1  0.32894903  0.17024837  0.28058302  1
  Co  Co3  1  0.82894796  0.67063689  0.78066772  1
  F  F4  1  0.60200965  0.44452682  0.00543227  1
  F  F5  1  0.05354585  0.89489603  0.55407465  1
  F  F6  1  0.60182166  0.89467245  0.00567757  1
  F  F7  1  0.05340175  0.44445953  0.55421782  1
  F  F8  1  0.60216463  0.89528215  0.55388772  1
  F  F9  1  0.05374813  0.44367364  0.00541028  1
