# generated using pymatgen
data_Rb2RhF6
_symmetry_space_group_name_H-M   'P 1'
_cell_length_a   5.00896502
_cell_length_b   5.98681450
_cell_length_c   5.98847818
_cell_angle_alpha   120.25019836
_cell_angle_beta   89.99064636
_cell_angle_gamma   90.06690979
_symmetry_Int_Tables_number   1
_chemical_formula_structural   Rb2RhF6
_chemical_formula_sum   'Rb2 Rh1 F6'
_cell_volume   155.12796548
_cell_formula_units_Z   1
loop_
 _symmetry_equiv_pos_site_id
 _symmetry_equiv_pos_as_xyz
  1  'x, y, z'
loop_
 _atom_site_type_symbol
 _atom_site_label
 _atom_site_symmetry_multiplicity
 _atom_site_fract_x
 _atom_site_fract_y
 _atom_site_fract_z
 _atom_site_occupancy
  Rb  Rb0  1  0.71818769  0.07836126  0.76753485  1
  Rb  Rb1  1  0.11332963  0.74851090  0.10159025  1
  Rh  Rh2  1  0.41458330  0.41500622  0.43642962  1
  F  F3  1  0.19552670  0.25876087  0.58965510  1
  F  F4  1  0.63491493  0.56980270  0.27925444  1
  F  F5  1  0.63502622  0.56839907  0.74892396  1
  F  F6  1  0.19648033  0.25864542  0.12065448  1
  F  F7  1  0.63531917  0.10460897  0.27832794  1
  F  F8  1  0.19504549  0.72969854  0.59013164  1
