# generated using pymatgen
data_Rb2SnHgTe4
_symmetry_space_group_name_H-M   'P 1'
_cell_length_a   4.83091593
_cell_length_b   8.24519825
_cell_length_c   8.74278259
_cell_angle_alpha   108.68673706
_cell_angle_beta   106.14075470
_cell_angle_gamma   89.88499451
_symmetry_Int_Tables_number   1
_chemical_formula_structural   Rb2SnHgTe4
_chemical_formula_sum   'Rb2 Sn1 Hg1 Te4'
_cell_volume   315.42636229
_cell_formula_units_Z   1
loop_
 _symmetry_equiv_pos_site_id
 _symmetry_equiv_pos_as_xyz
  1  'x, y, z'
loop_
 _atom_site_type_symbol
 _atom_site_label
 _atom_site_symmetry_multiplicity
 _atom_site_fract_x
 _atom_site_fract_y
 _atom_site_fract_z
 _atom_site_occupancy
  Rb  Rb0  1  0.55051541  0.05744102  0.85998416  1
  Rb  Rb1  1  0.80125833  0.69565415  0.36115682  1
  Sn  Sn2  1  0.03294478  0.52117485  0.81993216  1
  Hg  Hg3  1  0.30303943  0.21622150  0.36116394  1
  Te  Te4  1  0.16738820  0.38259405  0.09416831  1
  Te  Te5  1  0.88964361  0.14606680  0.54389369  1
  Te  Te6  1  0.16725230  0.85805440  0.09248112  1
  Te  Te7  1  0.45440426  0.59395969  0.66086251  1
