# generated using pymatgen
data_Rb2Se3
_symmetry_space_group_name_H-M   'P 1'
_cell_length_a   6.78006554
_cell_length_b   6.82417774
_cell_length_c   7.70894289
_cell_angle_alpha   90.09545135
_cell_angle_beta   90.44329071
_cell_angle_gamma   92.99900055
_symmetry_Int_Tables_number   1
_chemical_formula_structural   Rb2Se3
_chemical_formula_sum   'Rb4 Se6'
_cell_volume   356.18032114
_cell_formula_units_Z   2
loop_
 _symmetry_equiv_pos_site_id
 _symmetry_equiv_pos_as_xyz
  1  'x, y, z'
loop_
 _atom_site_type_symbol
 _atom_site_label
 _atom_site_symmetry_multiplicity
 _atom_site_fract_x
 _atom_site_fract_y
 _atom_site_fract_z
 _atom_site_occupancy
  Rb  Rb0  1  0.72617477  0.45317000  0.60558200  1
  Rb  Rb1  1  0.46133953  0.94678664  0.35743630  1
  Rb  Rb2  1  0.21286546  0.19531061  0.85694355  1
  Rb  Rb3  1  0.95833910  0.69708467  0.10617266  1
  Se  Se4  1  0.14172144  0.29631704  0.36552694  1
  Se  Se5  1  0.35251033  0.70819360  0.79053491  1
  Se  Se6  1  0.94549274  0.99801725  0.49380285  1
  Se  Se7  1  0.64738601  0.92005211  0.79804796  1
  Se  Se8  1  0.71857595  0.22330725  0.02919298  1
  Se  Se9  1  0.44327703  0.45520958  0.23488742  1
