# generated using pymatgen
data_Rb2SnCl6
_symmetry_space_group_name_H-M   'P 1'
_cell_length_a   7.34362507
_cell_length_b   7.34109640
_cell_length_c   7.32846642
_cell_angle_alpha   59.85053253
_cell_angle_beta   59.92936707
_cell_angle_gamma   59.89183807
_symmetry_Int_Tables_number   1
_chemical_formula_structural   Rb2SnCl6
_chemical_formula_sum   'Rb2 Sn1 Cl6'
_cell_volume   278.66961532
_cell_formula_units_Z   1
loop_
 _symmetry_equiv_pos_site_id
 _symmetry_equiv_pos_as_xyz
  1  'x, y, z'
loop_
 _atom_site_type_symbol
 _atom_site_label
 _atom_site_symmetry_multiplicity
 _atom_site_fract_x
 _atom_site_fract_y
 _atom_site_fract_z
 _atom_site_occupancy
  Rb  Rb0  1  0.44425759  0.10382260  0.11503413  1
  Rb  Rb1  1  0.94476527  0.60421479  0.61605483  1
  Sn  Sn2  1  0.69335830  0.35300985  0.36566064  1
  Cl  Cl3  1  0.45503664  0.11602273  0.60305774  1
  Cl  Cl4  1  0.93345457  0.11640327  0.60339415  1
  Cl  Cl5  1  0.93331641  0.11626150  0.12730831  1
  Cl  Cl6  1  0.45548573  0.59294790  0.12712623  1
  Cl  Cl7  1  0.45555139  0.59406519  0.60277796  1
  Cl  Cl8  1  0.93317169  0.59328371  0.12763736  1
