# generated using pymatgen
data_Rb2TlGaCl6
_symmetry_space_group_name_H-M   'P 1'
_cell_length_a   7.69927311
_cell_length_b   7.71155453
_cell_length_c   7.70045567
_cell_angle_alpha   59.71207428
_cell_angle_beta   59.76250076
_cell_angle_gamma   59.83934402
_symmetry_Int_Tables_number   1
_chemical_formula_structural   Rb2TlGaCl6
_chemical_formula_sum   'Rb2 Tl1 Ga1 Cl6'
_cell_volume   321.61112065
_cell_formula_units_Z   1
loop_
 _symmetry_equiv_pos_site_id
 _symmetry_equiv_pos_as_xyz
  1  'x, y, z'
loop_
 _atom_site_type_symbol
 _atom_site_label
 _atom_site_symmetry_multiplicity
 _atom_site_fract_x
 _atom_site_fract_y
 _atom_site_fract_z
 _atom_site_occupancy
  Rb  Rb0  1  0.57323325  0.77589285  0.82799059  1
  Rb  Rb1  1  0.07231122  0.27532738  0.32655922  1
  Tl  Tl2  1  0.82400423  0.02644166  0.07742812  1
  Ga  Ga3  1  0.32368541  0.52613646  0.57750452  1
  Cl  Cl4  1  0.54445285  0.30499986  0.35573125  1
  Cl  Cl5  1  0.54465860  0.74732876  0.35567707  1
  Cl  Cl6  1  0.10136157  0.74793440  0.35533562  1
  Cl  Cl7  1  0.10125180  0.74790514  0.79751098  1
  Cl  Cl8  1  0.54437506  0.30539000  0.79762250  1
  Cl  Cl9  1  0.10171239  0.30527925  0.79734528  1
