# generated using pymatgen
data_Rb2YTlF6
_symmetry_space_group_name_H-M   'P 1'
_cell_length_a   6.85922146
_cell_length_b   6.85618496
_cell_length_c   6.84261322
_cell_angle_alpha   59.73969650
_cell_angle_beta   59.76932907
_cell_angle_gamma   59.93062973
_symmetry_Int_Tables_number   1
_chemical_formula_structural   Rb2YTlF6
_chemical_formula_sum   'Rb2 Y1 Tl1 F6'
_cell_volume   226.57725737
_cell_formula_units_Z   1
loop_
 _symmetry_equiv_pos_site_id
 _symmetry_equiv_pos_as_xyz
  1  'x, y, z'
loop_
 _atom_site_type_symbol
 _atom_site_label
 _atom_site_symmetry_multiplicity
 _atom_site_fract_x
 _atom_site_fract_y
 _atom_site_fract_z
 _atom_site_occupancy
  Rb  Rb0  1  0.37250772  0.05236581  0.73883319  1
  Rb  Rb1  1  0.87252337  0.55201679  0.23889732  1
  Y  Y2  1  0.12273821  0.80295354  0.48909879  1
  Tl  Tl3  1  0.62310630  0.30300659  0.98851258  1
  F  F4  1  0.34532073  0.57831311  0.26427531  1
  F  F5  1  0.89764673  0.02822964  0.26392874  1
  F  F6  1  0.89753109  0.57805961  0.71174115  1
  F  F7  1  0.34547538  0.02851334  0.26429847  1
  F  F8  1  0.34537137  0.57795280  0.71245444  1
  F  F9  1  0.89736390  0.02827117  0.71130580  1
