# generated using pymatgen
data_Rb3GaO3
_symmetry_space_group_name_H-M   'P 1'
_cell_length_a   6.52463770
_cell_length_b   7.11757994
_cell_length_c   7.30822182
_cell_angle_alpha   100.86904907
_cell_angle_beta   93.43998718
_cell_angle_gamma   111.50741577
_symmetry_Int_Tables_number   1
_chemical_formula_structural   Rb3GaO3
_chemical_formula_sum   'Rb6 Ga2 O6'
_cell_volume   306.98207220
_cell_formula_units_Z   2
loop_
 _symmetry_equiv_pos_site_id
 _symmetry_equiv_pos_as_xyz
  1  'x, y, z'
loop_
 _atom_site_type_symbol
 _atom_site_label
 _atom_site_symmetry_multiplicity
 _atom_site_fract_x
 _atom_site_fract_y
 _atom_site_fract_z
 _atom_site_occupancy
  Rb  Rb0  1  0.23841995  0.86584800  0.73869407  1
  Rb  Rb1  1  0.68719453  0.71706122  0.86625457  1
  Rb  Rb2  1  0.72803456  0.29624432  0.44962099  1
  Rb  Rb3  1  0.71749961  0.79848844  0.39688903  1
  Rb  Rb4  1  0.21147826  0.77533895  0.20800133  1
  Rb  Rb5  1  0.23698005  0.28175887  0.14515699  1
  Ga  Ga6  1  0.72704160  0.29318526  0.95668298  1
  Ga  Ga7  1  0.21998262  0.33458370  0.64484924  1
  O  O8  1  0.47226173  0.30744788  0.78617334  1
  O  O9  1  0.80286837  0.50072932  0.14483227  1
  O  O10  1  0.59803146  0.05502702  0.05952230  1
  O  O11  1  0.00347400  0.37033722  0.81667352  1
  O  O12  1  0.10640121  0.09308619  0.47549126  1
  O  O13  1  0.30612773  0.55230534  0.50569499  1
