# generated using pymatgen
data_Rb3VF6
_symmetry_space_group_name_H-M   'P 1'
_cell_length_a   6.57087421
_cell_length_b   6.57027292
_cell_length_c   6.59518099
_cell_angle_alpha   59.79329681
_cell_angle_beta   59.78948212
_cell_angle_gamma   59.77933121
_symmetry_Int_Tables_number   1
_chemical_formula_structural   Rb3VF6
_chemical_formula_sum   'Rb3 V1 F6'
_cell_volume   200.36263809
_cell_formula_units_Z   1
loop_
 _symmetry_equiv_pos_site_id
 _symmetry_equiv_pos_as_xyz
  1  'x, y, z'
loop_
 _atom_site_type_symbol
 _atom_site_label
 _atom_site_symmetry_multiplicity
 _atom_site_fract_x
 _atom_site_fract_y
 _atom_site_fract_z
 _atom_site_occupancy
  Rb  Rb0  1  0.00534173  0.37178227  0.45196170  1
  Rb  Rb1  1  0.75436008  0.11920246  0.20219688  1
  Rb  Rb2  1  0.25417492  0.62031722  0.70212668  1
  V  V3  1  0.50459713  0.87118894  0.95296532  1
  F  F4  1  0.29147267  0.65864420  0.16500534  1
  F  F5  1  0.29148626  0.08611771  0.16512401  1
  F  F6  1  0.71903539  0.65924066  0.16586162  1
  F  F7  1  0.29056564  0.08571310  0.73901337  1
  F  F8  1  0.71869510  0.08611418  0.74029547  1
  F  F9  1  0.71874624  0.65894282  0.73915553  1
