# generated using pymatgen
data_Rb6AlSb3
_symmetry_space_group_name_H-M   'P 1'
_cell_length_a   8.16154385
_cell_length_b   10.44202614
_cell_length_c   11.95254135
_cell_angle_alpha   83.94446564
_cell_angle_beta   71.66983795
_cell_angle_gamma   67.08077240
_symmetry_Int_Tables_number   1
_chemical_formula_structural   Rb6AlSb3
_chemical_formula_sum   'Rb12 Al2 Sb6'
_cell_volume   890.44291074
_cell_formula_units_Z   2
loop_
 _symmetry_equiv_pos_site_id
 _symmetry_equiv_pos_as_xyz
  1  'x, y, z'
loop_
 _atom_site_type_symbol
 _atom_site_label
 _atom_site_symmetry_multiplicity
 _atom_site_fract_x
 _atom_site_fract_y
 _atom_site_fract_z
 _atom_site_occupancy
  Rb  Rb0  1  0.49612719  0.11258633  0.59320313  1
  Rb  Rb1  1  0.09904703  0.93140048  0.41649157  1
  Rb  Rb2  1  0.98327392  0.87432814  0.09162787  1
  Rb  Rb3  1  0.64210433  0.72521275  0.45534265  1
  Rb  Rb4  1  0.09354030  0.42465872  0.91858763  1
  Rb  Rb5  1  0.56621164  0.35531846  0.03768265  1
  Rb  Rb6  1  0.27797306  0.50000250  0.41623420  1
  Rb  Rb7  1  0.56624126  0.72845405  0.14231081  1
  Rb  Rb8  1  0.91387880  0.33258563  0.63624913  1
  Rb  Rb9  1  0.48686820  0.72629088  0.82696497  1
  Rb  Rb10  1  0.65894282  0.03941633  0.87716514  1
  Rb  Rb11  1  0.80636162  0.28324863  0.30969426  1
  Al  Al12  1  0.11840243  0.71649629  0.70104682  1
  Al  Al13  1  0.24087118  0.21690531  0.19772442  1
  Sb  Sb14  1  0.41817409  0.49971402  0.66757119  1
  Sb  Sb15  1  0.46890515  0.08319153  0.28805891  1
  Sb  Sb16  1  0.04972868  0.50262940  0.21060185  1
  Sb  Sb17  1  0.13675888  0.94598293  0.71615171  1
  Sb  Sb18  1  0.88859224  0.75892884  0.63945794  1
  Sb  Sb19  1  0.23191439  0.08465450  0.08533579  1
