# generated using pymatgen
data_RbCdAuS2
_symmetry_space_group_name_H-M   'P 1'
_cell_length_a   6.42078876
_cell_length_b   9.91505718
_cell_length_c   9.87107468
_cell_angle_alpha   78.08243561
_cell_angle_beta   70.87261200
_cell_angle_gamma   71.01731873
_symmetry_Int_Tables_number   1
_chemical_formula_structural   RbCdAuS2
_chemical_formula_sum   'Rb4 Cd4 Au4 S8'
_cell_volume   557.91293961
_cell_formula_units_Z   4
loop_
 _symmetry_equiv_pos_site_id
 _symmetry_equiv_pos_as_xyz
  1  'x, y, z'
loop_
 _atom_site_type_symbol
 _atom_site_label
 _atom_site_symmetry_multiplicity
 _atom_site_fract_x
 _atom_site_fract_y
 _atom_site_fract_z
 _atom_site_occupancy
  Rb  Rb0  1  0.20616505  0.02378723  0.89057136  1
  Rb  Rb1  1  0.70575666  0.25058174  0.65601176  1
  Rb  Rb2  1  0.20742516  0.46936911  0.42509100  1
  Rb  Rb3  1  0.70670688  0.76324475  0.16017172  1
  Cd  Cd4  1  0.18680172  0.89319539  0.52163988  1
  Cd  Cd5  1  0.43998426  0.63459539  0.76957667  1
  Cd  Cd6  1  0.68661982  0.36963129  0.04497574  1
  Cd  Cd7  1  0.18874712  0.37117362  0.03437622  1
  Au  Au8  1  0.20832023  0.75674713  0.15921377  1
  Au  Au9  1  0.68346214  0.87604851  0.53377885  1
  Au  Au10  1  0.93893313  0.13155861  0.27582759  1
  Au  Au11  1  0.93973702  0.63064599  0.77648765  1
  S  S12  1  0.35580561  0.09413462  0.52064192  1
  S  S13  1  0.55878705  0.65655392  0.53185260  1
  S  S14  1  0.55879194  0.15603676  0.03392666  1
  S  S15  1  0.84994543  0.37155089  0.25376260  1
  S  S16  1  0.84787828  0.87181628  0.75379521  1
  S  S17  1  0.05826924  0.88736814  0.31183603  1
  S  S18  1  0.34956393  0.59176320  0.02425091  1
  S  S19  1  0.05827929  0.38435668  0.80975407  1
