# generated using pymatgen
data_Re3Ir
_symmetry_space_group_name_H-M   'P 1'
_cell_length_a   3.92242980
_cell_length_b   3.94200921
_cell_length_c   4.65947199
_cell_angle_alpha   115.36317444
_cell_angle_beta   115.44010925
_cell_angle_gamma   89.81742096
_symmetry_Int_Tables_number   1
_chemical_formula_structural   Re3Ir
_chemical_formula_sum   'Re3 Ir1'
_cell_volume   57.32733522
_cell_formula_units_Z   1
loop_
 _symmetry_equiv_pos_site_id
 _symmetry_equiv_pos_as_xyz
  1  'x, y, z'
loop_
 _atom_site_type_symbol
 _atom_site_label
 _atom_site_symmetry_multiplicity
 _atom_site_fract_x
 _atom_site_fract_y
 _atom_site_fract_z
 _atom_site_occupancy
  Re  Re0  1  0.22913341  0.54543728  0.72986686  1
  Re  Re1  1  0.72876066  0.04554401  0.72947794  1
  Re  Re2  1  0.97860950  0.79595065  0.22909336  1
  Ir  Ir3  1  0.47898725  0.29609752  0.22963153  1
