# generated using pymatgen
data_Re3Tc
_symmetry_space_group_name_H-M   'P 1'
_cell_length_a   4.43324375
_cell_length_b   5.49122000
_cell_length_c   5.48444128
_cell_angle_alpha   120.33361816
_cell_angle_beta   90.12141418
_cell_angle_gamma   90.01611328
_symmetry_Int_Tables_number   1
_chemical_formula_structural   Re3Tc
_chemical_formula_sum   'Re6 Tc2'
_cell_volume   115.23439817
_cell_formula_units_Z   2
loop_
 _symmetry_equiv_pos_site_id
 _symmetry_equiv_pos_as_xyz
  1  'x, y, z'
loop_
 _atom_site_type_symbol
 _atom_site_label
 _atom_site_symmetry_multiplicity
 _atom_site_fract_x
 _atom_site_fract_y
 _atom_site_fract_z
 _atom_site_occupancy
  Re  Re0  1  0.58785129  0.46176094  0.74247807  1
  Re  Re1  1  0.08820751  0.79578829  0.90945995  1
  Re  Re2  1  0.58769381  0.46290311  0.24373533  1
  Re  Re3  1  0.08792898  0.29403913  0.90998667  1
  Re  Re4  1  0.58786976  0.96074289  0.24314509  1
  Re  Re5  1  0.08774897  0.29417455  0.40936929  1
  Tc  Tc6  1  0.08758105  0.79519522  0.41009876  1
  Tc  Tc7  1  0.58778727  0.96010554  0.74254894  1
