# generated using pymatgen
data_Rh2WO6
_symmetry_space_group_name_H-M   'P 1'
_cell_length_a   4.81712389
_cell_length_b   5.03734875
_cell_length_c   8.71867943
_cell_angle_alpha   89.99053955
_cell_angle_beta   90.05912018
_cell_angle_gamma   90.40211487
_symmetry_Int_Tables_number   1
_chemical_formula_structural   Rh2WO6
_chemical_formula_sum   'Rh4 W2 O12'
_cell_volume   211.55807774
_cell_formula_units_Z   2
loop_
 _symmetry_equiv_pos_site_id
 _symmetry_equiv_pos_as_xyz
  1  'x, y, z'
loop_
 _atom_site_type_symbol
 _atom_site_label
 _atom_site_symmetry_multiplicity
 _atom_site_fract_x
 _atom_site_fract_y
 _atom_site_fract_z
 _atom_site_occupancy
  Rh  Rh0  1  0.16816069  0.02773901  0.46284685  1
  Rh  Rh1  1  0.16866454  0.52807683  0.93540812  1
  Rh  Rh2  1  0.16878645  0.52737868  0.28289485  1
  Rh  Rh3  1  0.66831696  0.52767640  0.58116156  1
  W  W4  1  0.66797990  0.02697031  0.78140038  1
  W  W5  1  0.66965187  0.02198690  0.14272936  1
  O  O6  1  0.87467283  0.19709234  0.95106745  1
  O  O7  1  0.95874965  0.70496333  0.44894075  1
  O  O8  1  0.91093129  0.70920420  0.78330475  1
  O  O9  1  0.46284458  0.85900205  0.95358092  1
  O  O10  1  0.45682159  0.86618429  0.62088144  1
  O  O11  1  0.87231427  0.19770059  0.61655873  1
  O  O12  1  0.38048741  0.35257915  0.44778034  1
  O  O13  1  0.41813073  0.85269523  0.28368556  1
  O  O14  1  0.91135454  0.20500194  0.28242150  1
  O  O15  1  0.43705779  0.35203749  0.78253174  1
  O  O16  1  0.39471355  0.33768308  0.11347152  1
  O  O17  1  0.95547181  0.71082526  0.11512602  1
