# generated using pymatgen
data_Sb16Te3
_symmetry_space_group_name_H-M   'P 1'
_cell_length_a   4.39499998
_cell_length_b   11.58572483
_cell_length_c   12.95130634
_cell_angle_alpha   95.00627899
_cell_angle_beta   89.82475281
_cell_angle_gamma   99.62107086
_symmetry_Int_Tables_number   1
_chemical_formula_structural   Sb16Te3
_chemical_formula_sum   'Sb16 Te3'
_cell_volume   647.67023893
_cell_formula_units_Z   1
loop_
 _symmetry_equiv_pos_site_id
 _symmetry_equiv_pos_as_xyz
  1  'x, y, z'
loop_
 _atom_site_type_symbol
 _atom_site_label
 _atom_site_symmetry_multiplicity
 _atom_site_fract_x
 _atom_site_fract_y
 _atom_site_fract_z
 _atom_site_occupancy
  Sb  Sb0  1  0.93609279  0.88099653  0.18804105  1
  Sb  Sb1  1  0.51104617  0.02319975  0.99312162  1
  Sb  Sb2  1  0.11438651  0.22956426  0.89012367  1
  Sb  Sb3  1  0.72253191  0.43800640  0.02830512  1
  Sb  Sb4  1  0.95540506  0.91503990  0.62079531  1
  Sb  Sb5  1  0.11431465  0.23140831  0.13206322  1
  Sb  Sb6  1  0.21899144  0.45148841  0.54330409  1
  Sb  Sb7  1  0.27461588  0.54759198  0.84016311  1
  Sb  Sb8  1  0.09250840  0.18170428  0.53559661  1
  Sb  Sb9  1  0.68465054  0.36770496  0.34196147  1
  Sb  Sb10  1  0.81048149  0.63092726  0.46711993  1
  Sb  Sb11  1  0.41210914  0.83403128  0.39047363  1
  Sb  Sb12  1  0.52888900  0.06942385  0.72391063  1
  Sb  Sb13  1  0.54156327  0.08837523  0.31534636  1
  Sb  Sb14  1  0.28128815  0.56440043  0.25372416  1
  Sb  Sb15  1  0.89138991  0.78442103  0.87015897  1
  Te  Te16  1  0.37027651  0.74171072  0.66324812  1
  Te  Te17  1  0.35946521  0.72321993  0.07512708  1
  Te  Te18  1  0.68614089  0.37338415  0.72749472  1
