# generated using pymatgen
data_SbSeBr
_symmetry_space_group_name_H-M   'P 1'
_cell_length_a   4.10310459
_cell_length_b   9.36120319
_cell_length_c   10.45796776
_cell_angle_alpha   92.63741302
_cell_angle_beta   90.11109161
_cell_angle_gamma   90.02439880
_symmetry_Int_Tables_number   1
_chemical_formula_structural   SbSeBr
_chemical_formula_sum   'Sb4 Se4 Br4'
_cell_volume   401.26419371
_cell_formula_units_Z   4
loop_
 _symmetry_equiv_pos_site_id
 _symmetry_equiv_pos_as_xyz
  1  'x, y, z'
loop_
 _atom_site_type_symbol
 _atom_site_label
 _atom_site_symmetry_multiplicity
 _atom_site_fract_x
 _atom_site_fract_y
 _atom_site_fract_z
 _atom_site_occupancy
  Sb  Sb0  1  0.91627067  0.10653187  0.27711153  1
  Sb  Sb1  1  0.41288325  0.64350617  0.44464245  1
  Sb  Sb2  1  0.41323581  0.46033657  0.77701890  1
  Sb  Sb3  1  0.90997875  0.01690634  0.93391919  1
  Se  Se4  1  0.90331632  0.56230420  0.62011683  1
  Se  Se5  1  0.86784202  0.80090511  0.31760678  1
  Se  Se6  1  0.88339567  0.30596548  0.90483487  1
  Se  Se7  1  0.40804666  0.06078738  0.11629096  1
  Br  Br8  1  0.83492970  0.16723488  0.50861090  1
  Br  Br9  1  0.33899701  0.41372514  0.27581128  1
  Br  Br10  1  0.33968735  0.66739237  0.98749846  1
  Br  Br11  1  0.35390300  0.94787657  0.73922527  1
