# generated using pymatgen
data_Sc2CrB2Rh5
_symmetry_space_group_name_H-M   'P 1'
_cell_length_a   3.10195231
_cell_length_b   9.18693638
_cell_length_c   9.23733807
_cell_angle_alpha   89.83668518
_cell_angle_beta   89.98777008
_cell_angle_gamma   90.07085419
_symmetry_Int_Tables_number   1
_chemical_formula_structural   Sc2CrB2Rh5
_chemical_formula_sum   'Sc4 Cr2 B4 Rh10'
_cell_volume   263.23919716
_cell_formula_units_Z   2
loop_
 _symmetry_equiv_pos_site_id
 _symmetry_equiv_pos_as_xyz
  1  'x, y, z'
loop_
 _atom_site_type_symbol
 _atom_site_label
 _atom_site_symmetry_multiplicity
 _atom_site_fract_x
 _atom_site_fract_y
 _atom_site_fract_z
 _atom_site_occupancy
  Sc  Sc0  1  0.81352425  0.05635192  0.58011252  1
  Sc  Sc1  1  0.81306833  0.20522010  0.07812683  1
  Sc  Sc2  1  0.81348306  0.55550855  0.43126437  1
  Sc  Sc3  1  0.81371313  0.70511287  0.93128490  1
  Cr  Cr4  1  0.81368130  0.38242179  0.75595212  1
  Cr  Cr5  1  0.81369495  0.88258243  0.25599727  1
  B  B6  1  0.81391954  0.75798458  0.62952369  1
  B  B7  1  0.81332916  0.00163603  0.87776440  1
  B  B8  1  0.81327844  0.50121593  0.12958145  1
  B  B9  1  0.81315100  0.25760528  0.37760386  1
  Rh  Rh10  1  0.31331718  0.88215929  0.75465840  1
  Rh  Rh11  1  0.31331605  0.94920737  0.03966487  1
  Rh  Rh12  1  0.31331918  0.31039545  0.54045886  1
  Rh  Rh13  1  0.31354991  0.44956049  0.96954966  1
  Rh  Rh14  1  0.31350574  0.16341613  0.82429320  1
  Rh  Rh15  1  0.31312355  0.38113770  0.25545004  1
  Rh  Rh16  1  0.31333709  0.80978149  0.46884114  1
  Rh  Rh17  1  0.31337425  0.59736019  0.68380904  1
  Rh  Rh18  1  0.31340483  0.09661569  0.32386371  1
  Rh  Rh19  1  0.31326157  0.66356599  0.18459995  1
