# generated using pymatgen
data_Sc2IrOs
_symmetry_space_group_name_H-M   'P 1'
_cell_length_a   4.54105425
_cell_length_b   4.52646875
_cell_length_c   4.52313280
_cell_angle_alpha   59.72510529
_cell_angle_beta   59.84988785
_cell_angle_gamma   59.96512985
_symmetry_Int_Tables_number   1
_chemical_formula_structural   Sc2IrOs
_chemical_formula_sum   'Sc2 Ir1 Os1'
_cell_volume   65.51236009
_cell_formula_units_Z   1
loop_
 _symmetry_equiv_pos_site_id
 _symmetry_equiv_pos_as_xyz
  1  'x, y, z'
loop_
 _atom_site_type_symbol
 _atom_site_label
 _atom_site_symmetry_multiplicity
 _atom_site_fract_x
 _atom_site_fract_y
 _atom_site_fract_z
 _atom_site_occupancy
  Sc  Sc0  1  0.52235085  0.19788863  0.56871641  1
  Sc  Sc1  1  0.02260860  0.69740176  0.06913364  1
  Ir  Ir2  1  0.77263439  0.44798833  0.81896013  1
  Os  Os3  1  0.27274874  0.94789976  0.31928319  1
