# generated using pymatgen
data_Sc3OsC4
_symmetry_space_group_name_H-M   'P 1'
_cell_length_a   3.19181466
_cell_length_b   5.13327360
_cell_length_c   6.44943953
_cell_angle_alpha   108.15882874
_cell_angle_beta   104.61399841
_cell_angle_gamma   90.38068390
_symmetry_Int_Tables_number   1
_chemical_formula_structural   Sc3OsC4
_chemical_formula_sum   'Sc3 Os1 C4'
_cell_volume   96.74056587
_cell_formula_units_Z   1
loop_
 _symmetry_equiv_pos_site_id
 _symmetry_equiv_pos_as_xyz
  1  'x, y, z'
loop_
 _atom_site_type_symbol
 _atom_site_label
 _atom_site_symmetry_multiplicity
 _atom_site_fract_x
 _atom_site_fract_y
 _atom_site_fract_z
 _atom_site_occupancy
  Sc  Sc0  1  0.86632991  0.80326015  0.45754051  1
  Sc  Sc1  1  0.60771555  0.78659862  0.94613570  1
  Sc  Sc2  1  0.30851656  0.27135876  0.34396201  1
  Os  Os3  1  0.08371542  0.26649228  0.89503413  1
  C  C4  1  0.49137461  0.35209501  0.71753252  1
  C  C5  1  0.69499010  0.44536775  0.12833706  1
  C  C6  1  0.24927795  0.64736962  0.18807755  1
  C  C7  1  0.48251268  0.05885114  0.67875016  1
