# generated using pymatgen
data_Sc6FeTe2
_symmetry_space_group_name_H-M   'P 1'
_cell_length_a   3.87922931
_cell_length_b   7.79619694
_cell_length_c   7.83828592
_cell_angle_alpha   119.95041656
_cell_angle_beta   90.11686707
_cell_angle_gamma   90.03299713
_symmetry_Int_Tables_number   1
_chemical_formula_structural   Sc6FeTe2
_chemical_formula_sum   'Sc6 Fe1 Te2'
_cell_volume   205.39748436
_cell_formula_units_Z   1
loop_
 _symmetry_equiv_pos_site_id
 _symmetry_equiv_pos_as_xyz
  1  'x, y, z'
loop_
 _atom_site_type_symbol
 _atom_site_label
 _atom_site_symmetry_multiplicity
 _atom_site_fract_x
 _atom_site_fract_y
 _atom_site_fract_z
 _atom_site_occupancy
  Sc  Sc0  1  0.13689879  0.96006966  0.81930053  1
  Sc  Sc1  1  0.63680065  0.81221145  0.38752040  1
  Sc  Sc2  1  0.13721690  0.16892776  0.51535362  1
  Sc  Sc3  1  0.63720262  0.69322127  0.88852698  1
  Sc  Sc4  1  0.13700841  0.49124351  0.08377080  1
  Sc  Sc5  1  0.63754362  0.17645015  0.21442030  1
  Fe  Fe6  1  0.13681765  0.88765502  0.15329839  1
  Te  Te7  1  0.63740361  0.22747946  0.81775743  1
  Te  Te8  1  0.13766232  0.55242419  0.49540755  1
