# generated using pymatgen
data_ScCoTe
_symmetry_space_group_name_H-M   'P 1'
_cell_length_a   4.34155893
_cell_length_b   4.35207081
_cell_length_c   4.31789446
_cell_angle_alpha   59.79626083
_cell_angle_beta   59.96808624
_cell_angle_gamma   60.09837723
_symmetry_Int_Tables_number   1
_chemical_formula_structural   ScCoTe
_chemical_formula_sum   'Sc1 Co1 Te1'
_cell_volume   57.62907777
_cell_formula_units_Z   1
loop_
 _symmetry_equiv_pos_site_id
 _symmetry_equiv_pos_as_xyz
  1  'x, y, z'
loop_
 _atom_site_type_symbol
 _atom_site_label
 _atom_site_symmetry_multiplicity
 _atom_site_fract_x
 _atom_site_fract_y
 _atom_site_fract_z
 _atom_site_occupancy
  Sc  Sc0  1  0.47734243  0.46786323  0.34962225  1
  Co  Co1  1  0.72781718  0.71834213  0.60048085  1
  Te  Te2  1  0.97803891  0.96848661  0.85009444  1
