# generated using pymatgen
data_ScGaCu2
_symmetry_space_group_name_H-M   'P 1'
_cell_length_a   4.35206795
_cell_length_b   4.35567188
_cell_length_c   4.33110523
_cell_angle_alpha   59.54319382
_cell_angle_beta   59.99744034
_cell_angle_gamma   59.92876053
_symmetry_Int_Tables_number   1
_chemical_formula_structural   ScGaCu2
_chemical_formula_sum   'Sc1 Ga1 Cu2'
_cell_volume   57.81914639
_cell_formula_units_Z   1
loop_
 _symmetry_equiv_pos_site_id
 _symmetry_equiv_pos_as_xyz
  1  'x, y, z'
loop_
 _atom_site_type_symbol
 _atom_site_label
 _atom_site_symmetry_multiplicity
 _atom_site_fract_x
 _atom_site_fract_y
 _atom_site_fract_z
 _atom_site_occupancy
  Sc  Sc0  1  0.28055638  0.88416052  0.80663288  1
  Ga  Ga1  1  0.78025204  0.38344431  0.30684605  1
  Cu  Cu2  1  0.53060514  0.13377048  0.05704435  1
  Cu  Cu3  1  0.03073061  0.63394088  0.55687320  1
