# generated using pymatgen
data_ScSbRh2
_symmetry_space_group_name_H-M   'P 1'
_cell_length_a   4.55417490
_cell_length_b   4.54939270
_cell_length_c   4.56100607
_cell_angle_alpha   59.78334045
_cell_angle_beta   59.95147324
_cell_angle_gamma   60.01848602
_symmetry_Int_Tables_number   1
_chemical_formula_structural   ScSbRh2
_chemical_formula_sum   'Sc1 Sb1 Rh2'
_cell_volume   66.69511194
_cell_formula_units_Z   1
loop_
 _symmetry_equiv_pos_site_id
 _symmetry_equiv_pos_as_xyz
  1  'x, y, z'
loop_
 _atom_site_type_symbol
 _atom_site_label
 _atom_site_symmetry_multiplicity
 _atom_site_fract_x
 _atom_site_fract_y
 _atom_site_fract_z
 _atom_site_occupancy
  Sc  Sc0  1  0.39568332  0.75701356  0.90715051  1
  Sb  Sb1  1  0.89541358  0.25682232  0.40733093  1
  Rh  Rh2  1  0.64567310  0.00696649  0.15734519  1
  Rh  Rh3  1  0.14593281  0.50699729  0.65753508  1
