# generated using pymatgen
data_ScZnAu2
_symmetry_space_group_name_H-M   'P 1'
_cell_length_a   4.64796972
_cell_length_b   4.64757729
_cell_length_c   4.65301466
_cell_angle_alpha   59.61000824
_cell_angle_beta   59.89505386
_cell_angle_gamma   59.94817734
_symmetry_Int_Tables_number   1
_chemical_formula_structural   ScZnAu2
_chemical_formula_sum   'Sc1 Zn1 Au2'
_cell_volume   70.77831380
_cell_formula_units_Z   1
loop_
 _symmetry_equiv_pos_site_id
 _symmetry_equiv_pos_as_xyz
  1  'x, y, z'
loop_
 _atom_site_type_symbol
 _atom_site_label
 _atom_site_symmetry_multiplicity
 _atom_site_fract_x
 _atom_site_fract_y
 _atom_site_fract_z
 _atom_site_occupancy
  Sc  Sc0  1  0.35418627  0.58660275  0.68202329  1
  Zn  Zn1  1  0.85402352  0.08648774  0.18199252  1
  Au  Au2  1  0.60389876  0.83700919  0.93165785  1
  Au  Au3  1  0.10387071  0.33681619  0.43132156  1
