# generated using pymatgen
data_SiH8
_symmetry_space_group_name_H-M   'P 1'
_cell_length_a   5.87042141
_cell_length_b   7.01768589
_cell_length_c   7.28754139
_cell_angle_alpha   104.86795044
_cell_angle_beta   92.18732452
_cell_angle_gamma   94.31948090
_symmetry_Int_Tables_number   1
_chemical_formula_structural   SiH8
_chemical_formula_sum   'Si2 H16'
_cell_volume   288.83214984
_cell_formula_units_Z   2
loop_
 _symmetry_equiv_pos_site_id
 _symmetry_equiv_pos_as_xyz
  1  'x, y, z'
loop_
 _atom_site_type_symbol
 _atom_site_label
 _atom_site_symmetry_multiplicity
 _atom_site_fract_x
 _atom_site_fract_y
 _atom_site_fract_z
 _atom_site_occupancy
  Si  Si0  1  0.68206066  0.83991277  0.78514904  1
  Si  Si1  1  0.21964455  0.99476385  0.27650949  1
  H  H2  1  0.96395653  0.30888262  0.79844630  1
  H  H3  1  0.59587884  0.37775478  0.91219282  1
  H  H4  1  0.17780839  0.46476781  0.42428923  1
  H  H5  1  0.75923204  0.90679193  0.63270509  1
  H  H6  1  0.75419140  0.00749771  0.93106514  1
  H  H7  1  0.12472624  0.41522896  0.90785933  1
  H  H8  1  0.27974027  0.80843246  0.13766322  1
  H  H9  1  0.45185822  0.10303918  0.39764881  1
  H  H10  1  0.80712777  0.67420864  0.22239898  1
  H  H11  1  0.44934556  0.45808706  0.42404675  1
  H  H12  1  0.97300524  0.09673394  0.29923019  1
  H  H13  1  0.22075078  0.88032413  0.42658857  1
  H  H14  1  0.29992321  0.13208386  0.13447587  1
  H  H15  1  0.45740533  0.76335084  0.80391127  1
  H  H16  1  0.56780088  0.54809439  0.30089298  1
  H  H17  1  0.79098439  0.64829546  0.75682783  1
