# generated using pymatgen
data_SiPtSe
_symmetry_space_group_name_H-M   'P 1'
_cell_length_a   6.04456139
_cell_length_b   6.05589247
_cell_length_c   6.19191599
_cell_angle_alpha   95.81397247
_cell_angle_beta   89.95257568
_cell_angle_gamma   90.02521515
_symmetry_Int_Tables_number   1
_chemical_formula_structural   SiPtSe
_chemical_formula_sum   'Si4 Pt4 Se4'
_cell_volume   225.49040409
_cell_formula_units_Z   4
loop_
 _symmetry_equiv_pos_site_id
 _symmetry_equiv_pos_as_xyz
  1  'x, y, z'
loop_
 _atom_site_type_symbol
 _atom_site_label
 _atom_site_symmetry_multiplicity
 _atom_site_fract_x
 _atom_site_fract_y
 _atom_site_fract_z
 _atom_site_occupancy
  Si  Si0  1  0.29507321  0.93557972  0.58562982  1
  Si  Si1  1  0.79515487  0.93527395  0.08565440  1
  Si  Si2  1  0.79502058  0.43559000  0.58529067  1
  Si  Si3  1  0.29501343  0.43615711  0.08539148  1
  Pt  Pt4  1  0.66617095  0.56220073  0.95330346  1
  Pt  Pt5  1  0.16604392  0.55923218  0.45273250  1
  Pt  Pt6  1  0.16622272  0.05893724  0.95275003  1
  Pt  Pt7  1  0.66630375  0.06177986  0.45306519  1
  Se  Se8  1  0.09046505  0.62422991  0.85844100  1
  Se  Se9  1  0.09007429  0.12398506  0.35843480  1
  Se  Se10  1  0.59102488  0.12339444  0.85760862  1
  Se  Se11  1  0.59081972  0.62393373  0.35841966  1
