# generated using pymatgen
data_Sm(AgGe)2
_symmetry_space_group_name_H-M   'P 1'
_cell_length_a   4.30012083
_cell_length_b   4.30547762
_cell_length_c   6.28060293
_cell_angle_alpha   109.68895721
_cell_angle_beta   110.21311188
_cell_angle_gamma   89.94599152
_symmetry_Int_Tables_number   1
_chemical_formula_structural   Sm(AgGe)2
_chemical_formula_sum   'Sm1 Ag2 Ge2'
_cell_volume   101.85772802
_cell_formula_units_Z   1
loop_
 _symmetry_equiv_pos_site_id
 _symmetry_equiv_pos_as_xyz
  1  'x, y, z'
loop_
 _atom_site_type_symbol
 _atom_site_label
 _atom_site_symmetry_multiplicity
 _atom_site_fract_x
 _atom_site_fract_y
 _atom_site_fract_z
 _atom_site_occupancy
  Sm  Sm0  1  0.52563345  0.04694437  0.14283456  1
  Ag  Ag1  1  0.77593297  0.79650730  0.64261746  1
  Ag  Ag2  1  0.27623487  0.29673558  0.64238501  1
  Ge  Ge3  1  0.91376299  0.43747979  0.92185330  1
  Ge  Ge4  1  0.13365451  0.65723348  0.36428708  1
