# generated using pymatgen
data_Sm(BOs)4
_symmetry_space_group_name_H-M   'P 1'
_cell_length_a   4.06104231
_cell_length_b   7.61257458
_cell_length_c   7.60665751
_cell_angle_alpha   89.97807312
_cell_angle_beta   89.98426056
_cell_angle_gamma   90.04151917
_symmetry_Int_Tables_number   1
_chemical_formula_structural   Sm(BOs)4
_chemical_formula_sum   'Sm2 B8 Os8'
_cell_volume   235.15963336
_cell_formula_units_Z   2
loop_
 _symmetry_equiv_pos_site_id
 _symmetry_equiv_pos_as_xyz
  1  'x, y, z'
loop_
 _atom_site_type_symbol
 _atom_site_label
 _atom_site_symmetry_multiplicity
 _atom_site_fract_x
 _atom_site_fract_y
 _atom_site_fract_z
 _atom_site_occupancy
  Sm  Sm0  1  0.45986989  0.34478939  0.29976079  1
  Sm  Sm1  1  0.95984143  0.84460253  0.79953575  1
  B  B2  1  0.58048290  0.12543352  0.96375495  1
  B  B3  1  0.58065355  0.55623448  0.63436902  1
  B  B4  1  0.85347438  0.62618190  0.46452045  1
  B  B5  1  0.35454094  0.68203664  0.09082427  1
  B  B6  1  0.07966831  0.18284769  0.59086704  1
  B  B7  1  0.35261542  0.01131690  0.52789456  1
  B  B8  1  0.07986607  0.50962305  0.02691108  1
  B  B9  1  0.85364062  0.05711890  0.13551736  1
  Os  Os10  1  0.35336384  0.95538872  0.15330710  1
  Os  Os11  1  0.08033615  0.45522383  0.65351933  1
  Os  Os12  1  0.85285068  0.70393580  0.19580558  1
  Os  Os13  1  0.07999139  0.23743877  0.94743741  1
  Os  Os14  1  0.35248709  0.73741400  0.44843203  1
  Os  Os15  1  0.58016843  0.49969205  0.91199565  1
  Os  Os16  1  0.85302061  0.99989986  0.41252965  1
  Os  Os17  1  0.57968593  0.20414242  0.69471675  1
