# generated using pymatgen
data_Sm(CoB)2
_symmetry_space_group_name_H-M   'P 1'
_cell_length_a   3.60784912
_cell_length_b   3.57590127
_cell_length_c   5.43589830
_cell_angle_alpha   109.43189240
_cell_angle_beta   109.67144012
_cell_angle_gamma   90.30905914
_symmetry_Int_Tables_number   1
_chemical_formula_structural   Sm(CoB)2
_chemical_formula_sum   'Sm1 Co2 B2'
_cell_volume   61.72916395
_cell_formula_units_Z   1
loop_
 _symmetry_equiv_pos_site_id
 _symmetry_equiv_pos_as_xyz
  1  'x, y, z'
loop_
 _atom_site_type_symbol
 _atom_site_label
 _atom_site_symmetry_multiplicity
 _atom_site_fract_x
 _atom_site_fract_y
 _atom_site_fract_z
 _atom_site_occupancy
  Sm  Sm0  1  0.77284145  0.64889318  0.81866485  1
  Co  Co1  1  0.02132896  0.39856824  0.31860712  1
  Co  Co2  1  0.52112985  0.89807612  0.31815869  1
  B  B3  1  0.11367466  0.99125302  0.50425452  1
  B  B4  1  0.42489329  0.30338076  0.12581979  1
