# generated using pymatgen
data_Sm(FeGe)2
_symmetry_space_group_name_H-M   'P 1'
_cell_length_a   4.01170826
_cell_length_b   4.01640272
_cell_length_c   6.05693245
_cell_angle_alpha   109.10919189
_cell_angle_beta   108.96581268
_cell_angle_gamma   89.89086914
_symmetry_Int_Tables_number   1
_chemical_formula_structural   Sm(FeGe)2
_chemical_formula_sum   'Sm1 Fe2 Ge2'
_cell_volume   86.61100953
_cell_formula_units_Z   1
loop_
 _symmetry_equiv_pos_site_id
 _symmetry_equiv_pos_as_xyz
  1  'x, y, z'
loop_
 _atom_site_type_symbol
 _atom_site_label
 _atom_site_symmetry_multiplicity
 _atom_site_fract_x
 _atom_site_fract_y
 _atom_site_fract_z
 _atom_site_occupancy
  Sm  Sm0  1  0.85605586  0.20233439  0.33721125  1
  Fe  Fe1  1  0.10583588  0.95131201  0.83726144  1
  Fe  Fe2  1  0.60657513  0.45211834  0.83641255  1
  Ge  Ge3  1  0.23259751  0.57935077  0.09102196  1
  Ge  Ge4  1  0.48000252  0.82726508  0.58549500  1
