# generated using pymatgen
data_Sm(HO)3
_symmetry_space_group_name_H-M   'P 1'
_cell_length_a   3.65976667
_cell_length_b   6.47915936
_cell_length_c   6.49508286
_cell_angle_alpha   119.91052246
_cell_angle_beta   89.67757416
_cell_angle_gamma   90.17142487
_symmetry_Int_Tables_number   1
_chemical_formula_structural   Sm(HO)3
_chemical_formula_sum   'Sm2 H6 O6'
_cell_volume   133.49695809
_cell_formula_units_Z   2
loop_
 _symmetry_equiv_pos_site_id
 _symmetry_equiv_pos_as_xyz
  1  'x, y, z'
loop_
 _atom_site_type_symbol
 _atom_site_label
 _atom_site_symmetry_multiplicity
 _atom_site_fract_x
 _atom_site_fract_y
 _atom_site_fract_z
 _atom_site_occupancy
  Sm  Sm0  1  0.64925420  0.36241418  0.53746706  1
  Sm  Sm1  1  0.14974558  0.03196757  0.87192899  1
  H  H2  1  0.14808996  0.55882311  0.92157334  1
  H  H3  1  0.64855027  0.83538783  0.48113683  1
  H  H4  1  0.64839029  0.83683079  0.06100803  1
  H  H5  1  0.14818920  0.55767715  0.34805018  1
  H  H6  1  0.14853105  0.97620851  0.34831131  1
  H  H7  1  0.64842516  0.42129394  0.06111406  1
  O  O8  1  0.14956601  0.08531579  0.28553617  1
  O  O9  1  0.64858240  0.77921766  0.88723439  1
  O  O10  1  0.64899909  0.30230334  0.11301406  1
  O  O11  1  0.14866029  0.38585189  0.80457854  1
  O  O12  1  0.64924812  0.00444951  0.59526813  1
  O  O13  1  0.14881527  0.60571992  0.50433940  1
