# generated using pymatgen
data_Sm(Mo3Se4)2
_symmetry_space_group_name_H-M   'P 1'
_cell_length_a   6.74392700
_cell_length_b   6.73922157
_cell_length_c   6.77083111
_cell_angle_alpha   89.17530823
_cell_angle_beta   89.18689728
_cell_angle_gamma   89.41417694
_symmetry_Int_Tables_number   1
_chemical_formula_structural   Sm(Mo3Se4)2
_chemical_formula_sum   'Sm1 Mo6 Se8'
_cell_volume   307.64796180
_cell_formula_units_Z   1
loop_
 _symmetry_equiv_pos_site_id
 _symmetry_equiv_pos_as_xyz
  1  'x, y, z'
loop_
 _atom_site_type_symbol
 _atom_site_label
 _atom_site_symmetry_multiplicity
 _atom_site_fract_x
 _atom_site_fract_y
 _atom_site_fract_z
 _atom_site_occupancy
  Sm  Sm0  1  0.78698808  0.88999361  0.05590149  1
  Mo  Mo1  1  0.34319448  0.31465974  0.29392177  1
  Mo  Mo2  1  0.01997241  0.45071307  0.48425350  1
  Mo  Mo3  1  0.36255372  0.65241629  0.50074559  1
  Mo  Mo4  1  0.22513044  0.46610945  0.82655513  1
  Mo  Mo5  1  0.55341291  0.32933891  0.63579893  1
  Mo  Mo6  1  0.20918494  0.12351975  0.61735207  1
  Se  Se7  1  0.53895187  0.01033170  0.43151778  1
  Se  Se8  1  0.54496479  0.65071779  0.82188636  1
  Se  Se9  1  0.03114562  0.76817596  0.68390328  1
  Se  Se10  1  0.02580210  0.13093603  0.29759824  1
  Se  Se11  1  0.66295439  0.51431638  0.30549049  1
  Se  Se12  1  0.41397995  0.13691460  0.93628508  1
  Se  Se13  1  0.16012754  0.64264643  0.18249425  1
  Se  Se14  1  0.91135252  0.26430443  0.81134087  1
