# generated using pymatgen
data_Sm(NiAs)2
_symmetry_space_group_name_H-M   'P 1'
_cell_length_a   4.00441504
_cell_length_b   4.00170946
_cell_length_c   5.85012817
_cell_angle_alpha   110.21524811
_cell_angle_beta   110.30670929
_cell_angle_gamma   90.07491302
_symmetry_Int_Tables_number   1
_chemical_formula_structural   Sm(NiAs)2
_chemical_formula_sum   'Sm1 Ni2 As2'
_cell_volume   81.71679241
_cell_formula_units_Z   1
loop_
 _symmetry_equiv_pos_site_id
 _symmetry_equiv_pos_as_xyz
  1  'x, y, z'
loop_
 _atom_site_type_symbol
 _atom_site_label
 _atom_site_symmetry_multiplicity
 _atom_site_fract_x
 _atom_site_fract_y
 _atom_site_fract_z
 _atom_site_occupancy
  Sm  Sm0  1  0.10095426  0.72260076  0.62516063  1
  Ni  Ni1  1  0.85083812  0.97109401  0.12555663  1
  Ni  Ni2  1  0.35102209  0.47183749  0.12543878  1
  As  As3  1  0.47038928  0.09461103  0.36590949  1
  As  As4  1  0.73138970  0.35284868  0.88659912  1
