# generated using pymatgen
data_Sm(Tl3Te2)3
_symmetry_space_group_name_H-M   'P 1'
_cell_length_a   7.57409143
_cell_length_b   9.17882252
_cell_length_c   9.19288445
_cell_angle_alpha   79.34144592
_cell_angle_beta   70.25952911
_cell_angle_gamma   70.42343903
_symmetry_Int_Tables_number   1
_chemical_formula_structural   Sm(Tl3Te2)3
_chemical_formula_sum   'Sm1 Tl9 Te6'
_cell_volume   564.91000168
_cell_formula_units_Z   1
loop_
 _symmetry_equiv_pos_site_id
 _symmetry_equiv_pos_as_xyz
  1  'x, y, z'
loop_
 _atom_site_type_symbol
 _atom_site_label
 _atom_site_symmetry_multiplicity
 _atom_site_fract_x
 _atom_site_fract_y
 _atom_site_fract_z
 _atom_site_occupancy
  Sm  Sm0  1  0.17654546  0.36805919  0.89621210  1
  Tl  Tl1  1  0.15898018  0.66856259  0.10305972  1
  Tl  Tl2  1  0.67104214  0.13509499  0.62370396  1
  Tl  Tl3  1  0.42236668  0.27000234  0.23384884  1
  Tl  Tl4  1  0.91704434  0.53181052  0.51583862  1
  Tl  Tl5  1  0.66084367  0.66626126  0.08941206  1
  Tl  Tl6  1  0.43089822  0.82107419  0.71095067  1
  Tl  Tl7  1  0.89157379  0.06754371  0.95862830  1
  Tl  Tl8  1  0.42897508  0.53285229  0.50745618  1
  Tl  Tl9  1  0.13941261  0.94942260  0.39295611  1
  Te  Te10  1  0.00966159  0.73228133  0.76474279  1
  Te  Te11  1  0.57294959  0.42501405  0.85136116  1
  Te  Te12  1  0.88925797  0.33183941  0.23568183  1
  Te  Te13  1  0.72833723  0.87771785  0.33807322  1
  Te  Te14  1  0.21807724  0.21203819  0.62160456  1
  Te  Te15  1  0.38901073  0.02073047  0.01193354  1
