# generated using pymatgen
data_Sm2AsSe
_symmetry_space_group_name_H-M   'P 1'
_cell_length_a   4.25834370
_cell_length_b   4.27075481
_cell_length_c   7.20533228
_cell_angle_alpha   72.73959351
_cell_angle_beta   72.71481323
_cell_angle_gamma   59.77912903
_symmetry_Int_Tables_number   1
_chemical_formula_structural   Sm2AsSe
_chemical_formula_sum   'Sm2 As1 Se1'
_cell_volume   106.38203746
_cell_formula_units_Z   1
loop_
 _symmetry_equiv_pos_site_id
 _symmetry_equiv_pos_as_xyz
  1  'x, y, z'
loop_
 _atom_site_type_symbol
 _atom_site_label
 _atom_site_symmetry_multiplicity
 _atom_site_fract_x
 _atom_site_fract_y
 _atom_site_fract_z
 _atom_site_occupancy
  Sm  Sm0  1  0.36968008  0.45399100  0.16233827  1
  Sm  Sm1  1  0.86101276  0.94948155  0.68171901  1
  As  As2  1  0.11612146  0.20145914  0.92157626  1
  Se  Se3  1  0.61519682  0.70136070  0.42187798  1
