# generated using pymatgen
data_Sm2IrAu
_symmetry_space_group_name_H-M   'P 1'
_cell_length_a   5.06340790
_cell_length_b   5.06985474
_cell_length_c   5.05804491
_cell_angle_alpha   60.14266968
_cell_angle_beta   60.13296509
_cell_angle_gamma   60.27587128
_symmetry_Int_Tables_number   1
_chemical_formula_structural   Sm2IrAu
_chemical_formula_sum   'Sm2 Ir1 Au1'
_cell_volume   92.19528569
_cell_formula_units_Z   1
loop_
 _symmetry_equiv_pos_site_id
 _symmetry_equiv_pos_as_xyz
  1  'x, y, z'
loop_
 _atom_site_type_symbol
 _atom_site_label
 _atom_site_symmetry_multiplicity
 _atom_site_fract_x
 _atom_site_fract_y
 _atom_site_fract_z
 _atom_site_occupancy
  Sm  Sm0  1  0.20328839  0.28501749  0.21925271  1
  Sm  Sm1  1  0.70327485  0.78514469  0.71882927  1
  Ir  Ir2  1  0.45397276  0.53459215  0.46909609  1
  Au  Au3  1  0.95368642  0.03497541  0.96866494  1
