# generated using pymatgen
data_Sm3Ho
_symmetry_space_group_name_H-M   'P 1'
_cell_length_a   5.12504578
_cell_length_b   5.10860300
_cell_length_c   5.12456322
_cell_angle_alpha   89.85235596
_cell_angle_beta   89.91226196
_cell_angle_gamma   89.83894348
_symmetry_Int_Tables_number   1
_chemical_formula_structural   Sm3Ho
_chemical_formula_sum   'Sm3 Ho1'
_cell_volume   134.16928205
_cell_formula_units_Z   1
loop_
 _symmetry_equiv_pos_site_id
 _symmetry_equiv_pos_as_xyz
  1  'x, y, z'
loop_
 _atom_site_type_symbol
 _atom_site_label
 _atom_site_symmetry_multiplicity
 _atom_site_fract_x
 _atom_site_fract_y
 _atom_site_fract_z
 _atom_site_occupancy
  Sm  Sm0  1  0.40095916  0.33943033  0.95323348  1
  Sm  Sm1  1  0.90092653  0.33913159  0.45356965  1
  Sm  Sm2  1  0.90070575  0.83891988  0.95385301  1
  Ho  Ho3  1  0.40063196  0.83869994  0.45361155  1
