# generated using pymatgen
data_Sm3Se4
_symmetry_space_group_name_H-M   'P 1'
_cell_length_a   7.62826109
_cell_length_b   7.62543154
_cell_length_c   7.61478853
_cell_angle_alpha   109.28295898
_cell_angle_beta   109.35266113
_cell_angle_gamma   109.64020538
_symmetry_Int_Tables_number   1
_chemical_formula_structural   Sm3Se4
_chemical_formula_sum   'Sm6 Se8'
_cell_volume   341.55366348
_cell_formula_units_Z   2
loop_
 _symmetry_equiv_pos_site_id
 _symmetry_equiv_pos_as_xyz
  1  'x, y, z'
loop_
 _atom_site_type_symbol
 _atom_site_label
 _atom_site_symmetry_multiplicity
 _atom_site_fract_x
 _atom_site_fract_y
 _atom_site_fract_z
 _atom_site_occupancy
  Sm  Sm0  1  0.23245409  0.96461570  0.52018934  1
  Sm  Sm1  1  0.98350507  0.21765976  0.02032975  1
  Sm  Sm2  1  0.10799813  0.71647394  0.89464664  1
  Sm  Sm3  1  0.48317596  0.58995599  0.64443755  1
  Sm  Sm4  1  0.73250532  0.08965364  0.39447314  1
  Sm  Sm5  1  0.60782242  0.46442628  0.14410871  1
  Se  Se6  1  0.35729370  0.69217837  0.26764154  1
  Se  Se7  1  0.70870775  0.33760497  0.76755351  1
  Se  Se8  1  0.85778230  0.83835393  0.12413333  1
  Se  Se9  1  0.85698432  0.83956736  0.62506092  1
  Se  Se10  1  0.50655264  0.98865253  0.91666692  1
  Se  Se11  1  0.00686183  0.48949808  0.41752607  1
  Se  Se12  1  0.20943396  0.33811343  0.76785368  1
  Se  Se13  1  0.35764930  0.19418363  0.26797387  1
