# generated using pymatgen
data_Sm3YS4
_symmetry_space_group_name_H-M   'P 1'
_cell_length_a   3.95708489
_cell_length_b   3.98631740
_cell_length_c   12.83456707
_cell_angle_alpha   81.07424164
_cell_angle_beta   81.01505280
_cell_angle_gamma   60.01990128
_symmetry_Int_Tables_number   1
_chemical_formula_structural   Sm3YS4
_chemical_formula_sum   'Sm3 Y1 S4'
_cell_volume   172.50944955
_cell_formula_units_Z   1
loop_
 _symmetry_equiv_pos_site_id
 _symmetry_equiv_pos_as_xyz
  1  'x, y, z'
loop_
 _atom_site_type_symbol
 _atom_site_label
 _atom_site_symmetry_multiplicity
 _atom_site_fract_x
 _atom_site_fract_y
 _atom_site_fract_z
 _atom_site_occupancy
  Sm  Sm0  1  0.08669659  0.43441027  0.09276646  1
  Sm  Sm1  1  0.33668947  0.68510795  0.34282914  1
  Sm  Sm2  1  0.83765095  0.18546805  0.84292465  1
  Y  Y3  1  0.58653343  0.93499637  0.59297132  1
  S  S4  1  0.96097881  0.30961707  0.47185326  1
  S  S5  1  0.46215755  0.81078207  0.96745437  1
  S  S6  1  0.21394841  0.56177390  0.71515751  1
  S  S7  1  0.71156543  0.06034422  0.21937586  1
