# generated using pymatgen
data_SmAlSi
_symmetry_space_group_name_H-M   'P 1'
_cell_length_a   4.22429371
_cell_length_b   4.19810247
_cell_length_c   7.19208527
_cell_angle_alpha   89.96547699
_cell_angle_beta   90.07892609
_cell_angle_gamma   89.94654083
_symmetry_Int_Tables_number   1
_chemical_formula_structural   SmAlSi
_chemical_formula_sum   'Sm2 Al2 Si2'
_cell_volume   127.54436886
_cell_formula_units_Z   2
loop_
 _symmetry_equiv_pos_site_id
 _symmetry_equiv_pos_as_xyz
  1  'x, y, z'
loop_
 _atom_site_type_symbol
 _atom_site_label
 _atom_site_symmetry_multiplicity
 _atom_site_fract_x
 _atom_site_fract_y
 _atom_site_fract_z
 _atom_site_occupancy
  Sm  Sm0  1  0.52938581  0.75967425  0.89609802  1
  Sm  Sm1  1  0.02941074  0.76025373  0.39687020  1
  Al  Al2  1  0.52872938  0.26022828  0.56450999  1
  Al  Al3  1  0.02955127  0.25981873  0.06424847  1
  Si  Si4  1  0.52885741  0.25988632  0.22405370  1
  Si  Si5  1  0.02896314  0.26022503  0.72421634  1
