# generated using pymatgen
data_SmAu
_symmetry_space_group_name_H-M   'P 1'
_cell_length_a   4.84006453
_cell_length_b   6.40604782
_cell_length_c   7.11903334
_cell_angle_alpha   89.87268066
_cell_angle_beta   89.87362671
_cell_angle_gamma   89.92068481
_symmetry_Int_Tables_number   1
_chemical_formula_structural   SmAu
_chemical_formula_sum   'Sm4 Au4'
_cell_volume   220.72921189
_cell_formula_units_Z   4
loop_
 _symmetry_equiv_pos_site_id
 _symmetry_equiv_pos_as_xyz
  1  'x, y, z'
loop_
 _atom_site_type_symbol
 _atom_site_label
 _atom_site_symmetry_multiplicity
 _atom_site_fract_x
 _atom_site_fract_y
 _atom_site_fract_z
 _atom_site_occupancy
  Sm  Sm0  1  0.18938553  0.34461743  0.17010444  1
  Sm  Sm1  1  0.68906188  0.84613496  0.97121876  1
  Sm  Sm2  1  0.18899196  0.84427094  0.47139069  1
  Sm  Sm3  1  0.68901092  0.34430322  0.66954333  1
  Au  Au4  1  0.18897882  0.09292018  0.82131982  1
  Au  Au5  1  0.68896610  0.59296215  0.32137528  1
  Au  Au6  1  0.68936992  0.09451286  0.32149804  1
  Au  Au7  1  0.18933727  0.59541160  0.82161492  1
