# generated using pymatgen
data_SmCuO2
_symmetry_space_group_name_H-M   'P 1'
_cell_length_a   3.66545177
_cell_length_b   3.79424334
_cell_length_c   3.80522513
_cell_angle_alpha   89.34691620
_cell_angle_beta   90.01081848
_cell_angle_gamma   90.05624390
_symmetry_Int_Tables_number   1
_chemical_formula_structural   SmCuO2
_chemical_formula_sum   'Sm1 Cu1 O2'
_cell_volume   52.91814548
_cell_formula_units_Z   1
loop_
 _symmetry_equiv_pos_site_id
 _symmetry_equiv_pos_as_xyz
  1  'x, y, z'
loop_
 _atom_site_type_symbol
 _atom_site_label
 _atom_site_symmetry_multiplicity
 _atom_site_fract_x
 _atom_site_fract_y
 _atom_site_fract_z
 _atom_site_occupancy
  Sm  Sm0  1  0.22263820  0.05149443  0.11748430  1
  Cu  Cu1  1  0.72340590  0.55180413  0.61710566  1
  O  O2  1  0.72323364  0.55142605  0.11683084  1
  O  O3  1  0.72389543  0.05124255  0.61712033  1
