# generated using pymatgen
data_SmDyZn2
_symmetry_space_group_name_H-M   'P 1'
_cell_length_a   5.08015203
_cell_length_b   5.06957531
_cell_length_c   5.06002808
_cell_angle_alpha   59.92145920
_cell_angle_beta   59.97805786
_cell_angle_gamma   59.91379929
_symmetry_Int_Tables_number   1
_chemical_formula_structural   SmDyZn2
_chemical_formula_sum   'Sm1 Dy1 Zn2'
_cell_volume   92.01793627
_cell_formula_units_Z   1
loop_
 _symmetry_equiv_pos_site_id
 _symmetry_equiv_pos_as_xyz
  1  'x, y, z'
loop_
 _atom_site_type_symbol
 _atom_site_label
 _atom_site_symmetry_multiplicity
 _atom_site_fract_x
 _atom_site_fract_y
 _atom_site_fract_z
 _atom_site_occupancy
  Sm  Sm0  1  0.23096856  0.61481643  0.17393708  1
  Dy  Dy1  1  0.73134470  0.11481076  0.67351496  1
  Zn  Zn2  1  0.48127851  0.86453855  0.42374682  1
  Zn  Zn3  1  0.98091596  0.36546159  0.92402261  1
