# generated using pymatgen
data_SmDyFe4
_symmetry_space_group_name_H-M   'P 1'
_cell_length_a   5.18536949
_cell_length_b   5.19792938
_cell_length_c   5.22638607
_cell_angle_alpha   60.01122665
_cell_angle_beta   60.06806946
_cell_angle_gamma   59.84939575
_symmetry_Int_Tables_number   1
_chemical_formula_structural   SmDyFe4
_chemical_formula_sum   'Sm1 Dy1 Fe4'
_cell_volume   99.55407088
_cell_formula_units_Z   1
loop_
 _symmetry_equiv_pos_site_id
 _symmetry_equiv_pos_as_xyz
  1  'x, y, z'
loop_
 _atom_site_type_symbol
 _atom_site_label
 _atom_site_symmetry_multiplicity
 _atom_site_fract_x
 _atom_site_fract_y
 _atom_site_fract_z
 _atom_site_occupancy
  Sm  Sm0  1  0.15478566  0.30415195  0.95062178  1
  Dy  Dy1  1  0.90568614  0.05680549  0.70111954  1
  Fe  Fe2  1  0.03024338  0.68152332  0.32603323  1
  Fe  Fe3  1  0.53035730  0.18151520  0.32601207  1
  Fe  Fe4  1  0.53019482  0.68117416  0.82563597  1
  Fe  Fe5  1  0.53010082  0.68107247  0.32581910  1
