# generated using pymatgen
data_SmGa3Ni
_symmetry_space_group_name_H-M   'P 1'
_cell_length_a   4.17202950
_cell_length_b   4.18135977
_cell_length_c   5.89278412
_cell_angle_alpha   110.75363922
_cell_angle_beta   110.69031525
_cell_angle_gamma   90.07511139
_symmetry_Int_Tables_number   1
_chemical_formula_structural   SmGa3Ni
_chemical_formula_sum   'Sm1 Ga3 Ni1'
_cell_volume   88.98268494
_cell_formula_units_Z   1
loop_
 _symmetry_equiv_pos_site_id
 _symmetry_equiv_pos_as_xyz
  1  'x, y, z'
loop_
 _atom_site_type_symbol
 _atom_site_label
 _atom_site_symmetry_multiplicity
 _atom_site_fract_x
 _atom_site_fract_y
 _atom_site_fract_z
 _atom_site_occupancy
  Sm  Sm0  1  0.27895808  0.30349073  0.49069101  1
  Ga  Ga1  1  0.69119579  0.71784401  0.31759241  1
  Ga  Ga2  1  0.52861851  0.05355290  0.99148965  1
  Ga  Ga3  1  0.02891201  0.55377322  0.99115080  1
  Ni  Ni4  1  0.91621029  0.93961275  0.76711440  1
