# generated using pymatgen
data_SmHo3Ni4
_symmetry_space_group_name_H-M   'P 1'
_cell_length_a   3.76046920
_cell_length_b   4.50314665
_cell_length_c   9.69802475
_cell_angle_alpha   89.89388275
_cell_angle_beta   90.01929474
_cell_angle_gamma   90.12275696
_symmetry_Int_Tables_number   1
_chemical_formula_structural   SmHo3Ni4
_chemical_formula_sum   'Sm1 Ho3 Ni4'
_cell_volume   164.22514292
_cell_formula_units_Z   1
loop_
 _symmetry_equiv_pos_site_id
 _symmetry_equiv_pos_as_xyz
  1  'x, y, z'
loop_
 _atom_site_type_symbol
 _atom_site_label
 _atom_site_symmetry_multiplicity
 _atom_site_fract_x
 _atom_site_fract_y
 _atom_site_fract_z
 _atom_site_occupancy
  Sm  Sm0  1  0.81733978  0.56895852  0.40611070  1
  Ho  Ho1  1  0.31794295  0.06914274  0.60073924  1
  Ho  Ho2  1  0.81719291  0.56879395  0.90071481  1
  Ho  Ho3  1  0.81761527  0.06901226  0.12305651  1
  Ni  Ni4  1  0.31787068  0.56906760  0.15296462  1
  Ni  Ni5  1  0.31847608  0.06940277  0.31518236  1
  Ni  Ni6  1  0.31740978  0.06902525  0.89741516  1
  Ni  Ni7  1  0.31725091  0.56890029  0.72397321  1
