# generated using pymatgen
data_SmMg3
_symmetry_space_group_name_H-M   'P 1'
_cell_length_a   5.23866558
_cell_length_b   5.24784040
_cell_length_c   5.23654604
_cell_angle_alpha   59.92353439
_cell_angle_beta   60.00084686
_cell_angle_gamma   59.95104980
_symmetry_Int_Tables_number   1
_chemical_formula_structural   SmMg3
_chemical_formula_sum   'Sm1 Mg3'
_cell_volume   101.70016528
_cell_formula_units_Z   1
loop_
 _symmetry_equiv_pos_site_id
 _symmetry_equiv_pos_as_xyz
  1  'x, y, z'
loop_
 _atom_site_type_symbol
 _atom_site_label
 _atom_site_symmetry_multiplicity
 _atom_site_fract_x
 _atom_site_fract_y
 _atom_site_fract_z
 _atom_site_occupancy
  Sm  Sm0  1  0.50230205  0.13872196  0.95764786  1
  Mg  Mg1  1  0.25308591  0.88882756  0.70768255  1
  Mg  Mg2  1  0.00240504  0.63867533  0.45730847  1
  Mg  Mg3  1  0.75277954  0.38862783  0.20759219  1
