# generated using pymatgen
data_SmSbPd
_symmetry_space_group_name_H-M   'P 1'
_cell_length_a   4.64193964
_cell_length_b   4.65772772
_cell_length_c   7.62686920
_cell_angle_alpha   89.92179871
_cell_angle_beta   89.88626099
_cell_angle_gamma   119.76860809
_symmetry_Int_Tables_number   1
_chemical_formula_structural   SmSbPd
_chemical_formula_sum   'Sm2 Sb2 Pd2'
_cell_volume   143.13834107
_cell_formula_units_Z   2
loop_
 _symmetry_equiv_pos_site_id
 _symmetry_equiv_pos_as_xyz
  1  'x, y, z'
loop_
 _atom_site_type_symbol
 _atom_site_label
 _atom_site_symmetry_multiplicity
 _atom_site_fract_x
 _atom_site_fract_y
 _atom_site_fract_z
 _atom_site_occupancy
  Sm  Sm0  1  0.05905464  0.94472361  0.03666992  1
  Sm  Sm1  1  0.05929335  0.94493550  0.53671342  1
  Sb  Sb2  1  0.72533768  0.27805144  0.30952159  1
  Sb  Sb3  1  0.39192852  0.61105871  0.80910504  1
  Pd  Pd4  1  0.72571552  0.27837518  0.72806853  1
  Pd  Pd5  1  0.39239243  0.61121672  0.22895624  1
