# generated using pymatgen
data_SmSi3Rh
_symmetry_space_group_name_H-M   'P 1'
_cell_length_a   4.03155613
_cell_length_b   4.01416969
_cell_length_c   5.95549536
_cell_angle_alpha   109.86063385
_cell_angle_beta   109.90564728
_cell_angle_gamma   90.19351959
_symmetry_Int_Tables_number   1
_chemical_formula_structural   SmSi3Rh
_chemical_formula_sum   'Sm1 Si3 Rh1'
_cell_volume   84.45577604
_cell_formula_units_Z   1
loop_
 _symmetry_equiv_pos_site_id
 _symmetry_equiv_pos_as_xyz
  1  'x, y, z'
loop_
 _atom_site_type_symbol
 _atom_site_label
 _atom_site_symmetry_multiplicity
 _atom_site_fract_x
 _atom_site_fract_y
 _atom_site_fract_z
 _atom_site_occupancy
  Sm  Sm0  1  0.53857774  0.20742585  0.60908830  1
  Si  Si1  1  0.15312771  0.82338631  0.84213483  1
  Si  Si2  1  0.92186838  0.59137517  0.38117862  1
  Si  Si3  1  0.28776750  0.45494416  0.10702030  1
  Rh  Rh4  1  0.78851527  0.95643330  0.10856909  1
