# generated using pymatgen
data_SmTlTe2
_symmetry_space_group_name_H-M   'P 1'
_cell_length_a   4.52123260
_cell_length_b   4.53811932
_cell_length_c   8.49331284
_cell_angle_alpha   74.30184174
_cell_angle_beta   74.45207214
_cell_angle_gamma   59.57603836
_symmetry_Int_Tables_number   1
_chemical_formula_structural   SmTlTe2
_chemical_formula_sum   'Sm1 Tl1 Te2'
_cell_volume   142.85056908
_cell_formula_units_Z   1
loop_
 _symmetry_equiv_pos_site_id
 _symmetry_equiv_pos_as_xyz
  1  'x, y, z'
loop_
 _atom_site_type_symbol
 _atom_site_label
 _atom_site_symmetry_multiplicity
 _atom_site_fract_x
 _atom_site_fract_y
 _atom_site_fract_z
 _atom_site_occupancy
  Sm  Sm0  1  0.62661636  0.03754228  0.22707516  1
  Tl  Tl1  1  0.12670416  0.53785133  0.72604340  1
  Te  Te2  1  0.88632309  0.29767686  0.44590345  1
  Te  Te3  1  0.36410320  0.77739984  0.00907578  1
