# generated using pymatgen
data_SnO
_symmetry_space_group_name_H-M   'P 1'
_cell_length_a   4.14550495
_cell_length_b   6.08414936
_cell_length_c   6.20061255
_cell_angle_alpha   85.83610535
_cell_angle_beta   88.99237061
_cell_angle_gamma   89.60150909
_symmetry_Int_Tables_number   1
_chemical_formula_structural   SnO
_chemical_formula_sum   'Sn4 O4'
_cell_volume   155.95159836
_cell_formula_units_Z   4
loop_
 _symmetry_equiv_pos_site_id
 _symmetry_equiv_pos_as_xyz
  1  'x, y, z'
loop_
 _atom_site_type_symbol
 _atom_site_label
 _atom_site_symmetry_multiplicity
 _atom_site_fract_x
 _atom_site_fract_y
 _atom_site_fract_z
 _atom_site_occupancy
  Sn  Sn0  1  0.51908553  0.84146798  0.44572094  1
  Sn  Sn1  1  0.01937251  0.30621296  0.42796975  1
  Sn  Sn2  1  0.02048154  0.80678183  0.92750329  1
  Sn  Sn3  1  0.51926070  0.34278098  0.94547319  1
  O  O4  1  0.52027321  0.70587397  0.79831743  1
  O  O5  1  0.02025152  0.97190166  0.57123411  1
  O  O6  1  0.01986480  0.47143534  0.07088125  1
  O  O7  1  0.51969099  0.20585363  0.29861158  1
