# generated using pymatgen
data_SnPSe3
_symmetry_space_group_name_H-M   'P 1'
_cell_length_a   6.91392326
_cell_length_b   7.94637346
_cell_length_c   9.82279587
_cell_angle_alpha   90.65036774
_cell_angle_beta   91.75599670
_cell_angle_gamma   90.61193848
_symmetry_Int_Tables_number   1
_chemical_formula_structural   SnPSe3
_chemical_formula_sum   'Sn4 P4 Se12'
_cell_volume   539.34943866
_cell_formula_units_Z   4
loop_
 _symmetry_equiv_pos_site_id
 _symmetry_equiv_pos_as_xyz
  1  'x, y, z'
loop_
 _atom_site_type_symbol
 _atom_site_label
 _atom_site_symmetry_multiplicity
 _atom_site_fract_x
 _atom_site_fract_y
 _atom_site_fract_z
 _atom_site_occupancy
  Sn  Sn0  1  0.89935970  0.30188465  0.12378657  1
  Sn  Sn1  1  0.89866221  0.30454201  0.61036122  1
  Sn  Sn2  1  0.40282691  0.80039907  0.62599444  1
  Sn  Sn3  1  0.39872810  0.80636168  0.11132932  1
  P  P4  1  0.97963947  0.56495178  0.88469547  1
  P  P5  1  0.47949550  0.06446111  0.38501781  1
  P  P6  1  0.87423587  0.75886285  0.00920687  1
  P  P7  1  0.37432003  0.25947911  0.51014239  1
  Se  Se8  1  0.74888873  0.33184060  0.86898363  1
  Se  Se9  1  0.74102801  0.99116296  0.50962627  1
  Se  Se10  1  0.27118525  0.17205122  0.71433789  1
  Se  Se11  1  0.77666074  0.67014891  0.21444087  1
  Se  Se12  1  0.24107036  0.49185327  0.00905820  1
  Se  Se13  1  0.06541152  0.99023664  0.01096164  1
  Se  Se14  1  0.56565285  0.48869726  0.51036388  1
  Se  Se15  1  0.02345724  0.66915435  0.67814612  1
  Se  Se16  1  0.52360874  0.17033432  0.17814314  1
  Se  Se17  1  0.10703760  0.33664092  0.37276182  1
  Se  Se18  1  0.25511464  0.83404374  0.36958617  1
  Se  Se19  1  0.60645604  0.83420694  0.87264776  1
