# generated using pymatgen
data_Sr2CoSeO2
_symmetry_space_group_name_H-M   'P 1'
_cell_length_a   4.12264156
_cell_length_b   4.13084078
_cell_length_c   7.78046560
_cell_angle_alpha   105.58600616
_cell_angle_beta   105.41919708
_cell_angle_gamma   89.93240356
_symmetry_Int_Tables_number   1
_chemical_formula_structural   Sr2CoSeO2
_chemical_formula_sum   'Sr2 Co1 Se1 O2'
_cell_volume   122.68232413
_cell_formula_units_Z   1
loop_
 _symmetry_equiv_pos_site_id
 _symmetry_equiv_pos_as_xyz
  1  'x, y, z'
loop_
 _atom_site_type_symbol
 _atom_site_label
 _atom_site_symmetry_multiplicity
 _atom_site_fract_x
 _atom_site_fract_y
 _atom_site_fract_z
 _atom_site_occupancy
  Sr  Sr0  1  0.52645159  0.22528821  0.71153277  1
  Sr  Sr1  1  0.75728589  0.95236349  0.16747588  1
  Co  Co2  1  0.35860285  0.55456132  0.37233958  1
  Se  Se3  1  0.10701567  0.80322510  0.86786014  1
  O  O4  1  0.35647085  0.05274212  0.36615294  1
  O  O5  1  0.85723490  0.55324847  0.36737856  1
