# generated using pymatgen
data_Sr2Co2O5
_symmetry_space_group_name_H-M   'P 1'
_cell_length_a   5.55487442
_cell_length_b   5.61191750
_cell_length_c   7.69552135
_cell_angle_alpha   89.97812653
_cell_angle_beta   89.73932648
_cell_angle_gamma   89.88642120
_symmetry_Int_Tables_number   1
_chemical_formula_structural   Sr2Co2O5
_chemical_formula_sum   'Sr4 Co4 O10'
_cell_volume   239.89334063
_cell_formula_units_Z   2
loop_
 _symmetry_equiv_pos_site_id
 _symmetry_equiv_pos_as_xyz
  1  'x, y, z'
loop_
 _atom_site_type_symbol
 _atom_site_label
 _atom_site_symmetry_multiplicity
 _atom_site_fract_x
 _atom_site_fract_y
 _atom_site_fract_z
 _atom_site_occupancy
  Sr  Sr0  1  0.07093620  0.25257277  0.00290108  1
  Sr  Sr1  1  0.07075561  0.25944754  0.48574588  1
  Sr  Sr2  1  0.57668686  0.74713439  0.00314355  1
  Sr  Sr3  1  0.57332009  0.74549431  0.48733920  1
  Co  Co4  1  0.58829945  0.26986530  0.74111164  1
  Co  Co5  1  0.57016492  0.24553654  0.25118977  1
  Co  Co6  1  0.07192132  0.75054020  0.23387477  1
  Co  Co7  1  0.06736112  0.74389315  0.75971830  1
  O  O8  1  0.82444990  0.50328070  0.26031771  1
  O  O9  1  0.83256668  0.99104875  0.26082250  1
  O  O10  1  0.85520130  0.99075258  0.71474510  1
  O  O11  1  0.54242843  0.23453684  0.51430768  1
  O  O12  1  0.31597483  0.98941189  0.26065901  1
  O  O13  1  0.31228277  0.50365663  0.25921911  1
  O  O14  1  0.55724823  0.22746530  0.96917588  1
  O  O15  1  0.31082928  0.53011262  0.72474301  1
  O  O16  1  0.08063661  0.77634209  0.99092704  1
  O  O17  1  0.82414794  0.50807083  0.72944778  1
