# generated using pymatgen
data_Sr2Fe2O5
_symmetry_space_group_name_H-M   'P 1'
_cell_length_a   3.83866811
_cell_length_b   5.88534403
_cell_length_c   11.40972233
_cell_angle_alpha   91.90126038
_cell_angle_beta   89.96994781
_cell_angle_gamma   90.19791412
_symmetry_Int_Tables_number   1
_chemical_formula_structural   Sr2Fe2O5
_chemical_formula_sum   'Sr4 Fe4 O10'
_cell_volume   257.62364241
_cell_formula_units_Z   2
loop_
 _symmetry_equiv_pos_site_id
 _symmetry_equiv_pos_as_xyz
  1  'x, y, z'
loop_
 _atom_site_type_symbol
 _atom_site_label
 _atom_site_symmetry_multiplicity
 _atom_site_fract_x
 _atom_site_fract_y
 _atom_site_fract_z
 _atom_site_occupancy
  Sr  Sr0  1  0.30382746  0.17522636  0.26655266  1
  Sr  Sr1  1  0.30409649  0.63365573  0.56891268  1
  Sr  Sr2  1  0.30423349  0.13871816  0.75800264  1
  Sr  Sr3  1  0.80376726  0.67467177  0.25765830  1
  Fe  Fe4  1  0.80388594  0.11237941  0.53094316  1
  Fe  Fe5  1  0.30377451  0.52897257  0.01394109  1
  Fe  Fe6  1  0.80371320  0.63159871  0.79425055  1
  Fe  Fe7  1  0.80379808  0.02844060  0.03221422  1
  O  O8  1  0.80367362  0.04931974  0.36070824  1
  O  O9  1  0.80390751  0.69568771  0.96910590  1
  O  O10  1  0.80366802  0.87261307  0.67474931  1
  O  O11  1  0.30375701  0.18816625  0.96656626  1
  O  O12  1  0.30365837  0.55067515  0.36250660  1
  O  O13  1  0.80356652  0.37715995  0.65917504  1
  O  O14  1  0.80379725  0.32675466  0.12714851  1
  O  O15  1  0.30378553  0.59695429  0.81156659  1
  O  O16  1  0.30344146  0.09507147  0.53598285  1
  O  O17  1  0.30391410  0.82893187  0.12842421  1
