# generated using pymatgen
data_Sr2FeSnO6
_symmetry_space_group_name_H-M   'P 1'
_cell_length_a   4.08976507
_cell_length_b   4.07327127
_cell_length_c   8.15625668
_cell_angle_alpha   89.88796997
_cell_angle_beta   89.99136353
_cell_angle_gamma   89.95360565
_symmetry_Int_Tables_number   1
_chemical_formula_structural   Sr2FeSnO6
_chemical_formula_sum   'Sr2 Fe1 Sn1 O6'
_cell_volume   135.87251152
_cell_formula_units_Z   1
loop_
 _symmetry_equiv_pos_site_id
 _symmetry_equiv_pos_as_xyz
  1  'x, y, z'
loop_
 _atom_site_type_symbol
 _atom_site_label
 _atom_site_symmetry_multiplicity
 _atom_site_fract_x
 _atom_site_fract_y
 _atom_site_fract_z
 _atom_site_occupancy
  Sr  Sr0  1  0.59019798  0.32543522  0.25827494  1
  Sr  Sr1  1  0.59019858  0.32556680  0.80305952  1
  Fe  Fe2  1  0.09073860  0.82524276  0.02741087  1
  Sn  Sn3  1  0.09044250  0.82585943  0.52746242  1
  O  O4  1  0.09001374  0.32552266  0.52732915  1
  O  O5  1  0.09004976  0.32555744  0.02789780  1
  O  O6  1  0.09046263  0.82574618  0.78341955  1
  O  O7  1  0.09034651  0.82645601  0.27218145  1
  O  O8  1  0.59011275  0.82583493  0.02873868  1
  O  O9  1  0.59010881  0.82593971  0.52655315  1
