# generated using pymatgen
data_Sr2HfFeO6
_symmetry_space_group_name_H-M   'P 1'
_cell_length_a   5.70268059
_cell_length_b   5.68867016
_cell_length_c   8.15030479
_cell_angle_alpha   89.95819092
_cell_angle_beta   90.03935242
_cell_angle_gamma   89.93991852
_symmetry_Int_Tables_number   1
_chemical_formula_structural   Sr2HfFeO6
_chemical_formula_sum   'Sr4 Hf2 Fe2 O12'
_cell_volume   264.40106086
_cell_formula_units_Z   2
loop_
 _symmetry_equiv_pos_site_id
 _symmetry_equiv_pos_as_xyz
  1  'x, y, z'
loop_
 _atom_site_type_symbol
 _atom_site_label
 _atom_site_symmetry_multiplicity
 _atom_site_fract_x
 _atom_site_fract_y
 _atom_site_fract_z
 _atom_site_occupancy
  Sr  Sr0  1  0.28045225  0.75408632  0.19163592  1
  Sr  Sr1  1  0.28104499  0.75342822  0.69060040  1
  Sr  Sr2  1  0.78155017  0.25354367  0.69015098  1
  Sr  Sr3  1  0.78143448  0.25349706  0.19112074  1
  Hf  Hf4  1  0.28150120  0.25385869  0.94131601  1
  Hf  Hf5  1  0.28173047  0.25381580  0.44116342  1
  Fe  Fe6  1  0.78109068  0.75382155  0.44168699  1
  Fe  Fe7  1  0.78186566  0.75343150  0.94195956  1
  O  O8  1  0.06729652  0.96476501  0.44156000  1
  O  O9  1  0.78167433  0.75390136  0.19060495  1
  O  O10  1  0.98808205  0.46875545  0.94199121  1
  O  O11  1  0.49101603  0.54957384  0.94174051  1
  O  O12  1  0.57437605  0.04439462  0.94201648  1
  O  O13  1  0.28107464  0.25397539  0.19117050  1
  O  O14  1  0.06759223  0.96381277  0.94181550  1
  O  O15  1  0.28143126  0.25429949  0.68981254  1
  O  O16  1  0.98874629  0.46851715  0.44094598  1
  O  O17  1  0.78087676  0.75395465  0.69079214  1
  O  O18  1  0.57428545  0.04453567  0.44084007  1
  O  O19  1  0.49295935  0.54844069  0.44191346  1
