# generated using pymatgen
data_Sr2HoCu2RuO8
_symmetry_space_group_name_H-M   'P 1'
_cell_length_a   3.79262161
_cell_length_b   3.82465792
_cell_length_c   12.04617119
_cell_angle_alpha   89.80495453
_cell_angle_beta   89.90399933
_cell_angle_gamma   89.78981781
_symmetry_Int_Tables_number   1
_chemical_formula_structural   Sr2HoCu2RuO8
_chemical_formula_sum   'Sr2 Ho1 Cu2 Ru1 O8'
_cell_volume   174.73306879
_cell_formula_units_Z   1
loop_
 _symmetry_equiv_pos_site_id
 _symmetry_equiv_pos_as_xyz
  1  'x, y, z'
loop_
 _atom_site_type_symbol
 _atom_site_label
 _atom_site_symmetry_multiplicity
 _atom_site_fract_x
 _atom_site_fract_y
 _atom_site_fract_z
 _atom_site_occupancy
  Sr  Sr0  1  0.16403201  0.66812676  0.07819580  1
  Sr  Sr1  1  0.16483460  0.66840285  0.38197085  1
  Ho  Ho2  1  0.16452594  0.66823304  0.76316082  1
  Cu  Cu3  1  0.66487116  0.16813958  0.90251130  1
  Cu  Cu4  1  0.66513270  0.16792403  0.23441845  1
  Ru  Ru5  1  0.66722798  0.16750452  0.59125459  1
  O  O6  1  0.66494375  0.66809887  0.87103504  1
  O  O7  1  0.66484213  0.16818821  0.06564035  1
  O  O8  1  0.66494566  0.66791719  0.63880521  1
  O  O9  1  0.16456741  0.16868410  0.87038857  1
  O  O10  1  0.16527252  0.16824342  0.63937593  1
  O  O11  1  0.66529185  0.66805327  0.24275231  1
  O  O12  1  0.16494073  0.16820142  0.24367146  1
  O  O13  1  0.66531998  0.16805527  0.44203725  1
