# generated using pymatgen
data_Sr2LaGaO5
_symmetry_space_group_name_H-M   'P 1'
_cell_length_a   6.86754322
_cell_length_b   6.86996698
_cell_length_c   7.62464619
_cell_angle_alpha   115.83557892
_cell_angle_beta   115.68843079
_cell_angle_gamma   91.86043549
_symmetry_Int_Tables_number   1
_chemical_formula_structural   Sr2LaGaO5
_chemical_formula_sum   'Sr4 La2 Ga2 O10'
_cell_volume   280.69601583
_cell_formula_units_Z   2
loop_
 _symmetry_equiv_pos_site_id
 _symmetry_equiv_pos_as_xyz
  1  'x, y, z'
loop_
 _atom_site_type_symbol
 _atom_site_label
 _atom_site_symmetry_multiplicity
 _atom_site_fract_x
 _atom_site_fract_y
 _atom_site_fract_z
 _atom_site_occupancy
  Sr  Sr0  1  0.93264776  0.84654647  0.71667796  1
  Sr  Sr1  1  0.92920357  0.33885026  0.71475315  1
  Sr  Sr2  1  0.49982783  0.89860827  0.21994126  1
  Sr  Sr3  1  0.00059140  0.77042788  0.21755932  1
  La  La4  1  0.87139487  0.27301762  0.21983883  1
  La  La5  1  0.42765260  0.34588397  0.71811819  1
  Ga  Ga6  1  0.44047204  0.84819800  0.72354430  1
  Ga  Ga7  1  0.42593956  0.34567410  0.21463090  1
  O  O8  1  0.99012178  0.07378861  0.48441157  1
  O  O9  1  0.38483027  0.11694684  0.93790448  1
  O  O10  1  0.51765531  0.96141583  0.56420285  1
  O  O11  1  0.18018387  0.59573191  0.54969114  1
  O  O12  1  0.20432656  0.61718369  0.93648261  1
  O  O13  1  0.64057899  0.39287576  0.47785461  1
  O  O14  1  0.69448233  0.80971134  0.93595248  1
  O  O15  1  0.84110564  0.32444906  0.95232624  1
  O  O16  1  0.21037497  0.14141172  0.22763537  1
  O  O17  1  0.65525466  0.57226104  0.22863691  1
