# generated using pymatgen
data_Sr3Li4(GeN3)2
_symmetry_space_group_name_H-M   'P 1'
_cell_length_a   5.86752415
_cell_length_b   6.09750223
_cell_length_c   6.38938665
_cell_angle_alpha   113.87073517
_cell_angle_beta   91.64125824
_cell_angle_gamma   91.39839172
_symmetry_Int_Tables_number   1
_chemical_formula_structural   Sr3Li4(GeN3)2
_chemical_formula_sum   'Sr3 Li4 Ge2 N6'
_cell_volume   208.79299604
_cell_formula_units_Z   1
loop_
 _symmetry_equiv_pos_site_id
 _symmetry_equiv_pos_as_xyz
  1  'x, y, z'
loop_
 _atom_site_type_symbol
 _atom_site_label
 _atom_site_symmetry_multiplicity
 _atom_site_fract_x
 _atom_site_fract_y
 _atom_site_fract_z
 _atom_site_occupancy
  Sr  Sr0  1  0.25869554  0.06247897  0.29756847  1
  Sr  Sr1  1  0.50007641  0.55216986  0.05027864  1
  Sr  Sr2  1  0.86538762  0.79391903  0.58821768  1
  Li  Li3  1  0.80114168  0.92134792  0.01461660  1
  Li  Li4  1  0.72746450  0.22015488  0.62334424  1
  Li  Li5  1  0.35494837  0.03109895  0.82962000  1
  Li  Li6  1  0.77570724  0.29758531  0.29595116  1
  Ge  Ge7  1  0.25763887  0.51008940  0.61589986  1
  Ge  Ge8  1  0.00634287  0.42519030  0.98397803  1
  N  N9  1  0.14946635  0.25851139  0.70993954  1
  N  N10  1  0.55385989  0.48205778  0.57784712  1
  N  N11  1  0.73491406  0.18352114  0.92897439  1
  N  N12  1  0.11949396  0.48142847  0.29700646  1
  N  N13  1  0.12408772  0.72219473  0.90355343  1
  N  N14  1  0.70765758  0.97178531  0.29837790  1
