# generated using pymatgen
data_SrAgP
_symmetry_space_group_name_H-M   'P 1'
_cell_length_a   4.47856665
_cell_length_b   4.47296810
_cell_length_c   8.36733913
_cell_angle_alpha   89.80019379
_cell_angle_beta   89.73220062
_cell_angle_gamma   120.59055328
_symmetry_Int_Tables_number   1
_chemical_formula_structural   SrAgP
_chemical_formula_sum   'Sr2 Ag2 P2'
_cell_volume   144.28551519
_cell_formula_units_Z   2
loop_
 _symmetry_equiv_pos_site_id
 _symmetry_equiv_pos_as_xyz
  1  'x, y, z'
loop_
 _atom_site_type_symbol
 _atom_site_label
 _atom_site_symmetry_multiplicity
 _atom_site_fract_x
 _atom_site_fract_y
 _atom_site_fract_z
 _atom_site_occupancy
  Sr  Sr0  1  0.17640842  0.07030910  0.46629807  1
  Sr  Sr1  1  0.17571577  0.07030378  0.96736968  1
  Ag  Ag2  1  0.50983751  0.73660171  0.21712041  1
  Ag  Ag3  1  0.84184188  0.40342873  0.71693772  1
  P  P4  1  0.84275466  0.40340662  0.21733461  1
  P  P5  1  0.50929558  0.73677737  0.71627223  1
