# generated using pymatgen
data_SrCaNdSbO6
_symmetry_space_group_name_H-M   'P 1'
_cell_length_a   5.79663897
_cell_length_b   5.99426126
_cell_length_c   8.32709217
_cell_angle_alpha   90.11319733
_cell_angle_beta   89.85276794
_cell_angle_gamma   90.08351898
_symmetry_Int_Tables_number   1
_chemical_formula_structural   SrCaNdSbO6
_chemical_formula_sum   'Sr2 Ca2 Nd2 Sb2 O12'
_cell_volume   289.33605260
_cell_formula_units_Z   2
loop_
 _symmetry_equiv_pos_site_id
 _symmetry_equiv_pos_as_xyz
  1  'x, y, z'
loop_
 _atom_site_type_symbol
 _atom_site_label
 _atom_site_symmetry_multiplicity
 _atom_site_fract_x
 _atom_site_fract_y
 _atom_site_fract_z
 _atom_site_occupancy
  Sr  Sr0  1  0.30429804  0.26032445  0.25106218  1
  Sr  Sr1  1  0.80322796  0.65987301  0.75104415  1
  Ca  Ca2  1  0.82871699  0.76366234  0.25149807  1
  Ca  Ca3  1  0.32929954  0.15965189  0.75225240  1
  Nd  Nd4  1  0.31669849  0.71101910  0.50115532  1
  Nd  Nd5  1  0.81694734  0.21130858  0.00102516  1
  Sb  Sb6  1  0.81714821  0.21058388  0.50173843  1
  Sb  Sb7  1  0.31721863  0.71085334  0.00126379  1
  O  O8  1  0.09340156  0.02115190  0.44971508  1
  O  O9  1  0.98493856  0.49395037  0.43759823  1
  O  O10  1  0.43681848  0.67342097  0.22849986  1
  O  O11  1  0.48530319  0.42835319  0.93700075  1
  O  O12  1  0.53143716  0.39058560  0.55610180  1
  O  O13  1  0.59386522  0.90034819  0.95011395  1
  O  O14  1  0.22282302  0.76500887  0.77101988  1
  O  O15  1  0.72313672  0.16126153  0.27117416  1
  O  O16  1  0.63479829  0.93122011  0.55588382  1
  O  O17  1  0.03084255  0.53140116  0.05579892  1
  O  O18  1  0.93675393  0.24901576  0.72816223  1
  O  O19  1  0.13479000  0.99182719  0.05644599  1
