# generated using pymatgen
data_SrCdO2
_symmetry_space_group_name_H-M   'P 1'
_cell_length_a   3.61478424
_cell_length_b   3.61461043
_cell_length_c   4.88779545
_cell_angle_alpha   89.73858643
_cell_angle_beta   89.84220886
_cell_angle_gamma   90.03403473
_symmetry_Int_Tables_number   1
_chemical_formula_structural   SrCdO2
_chemical_formula_sum   'Sr1 Cd1 O2'
_cell_volume   63.86319670
_cell_formula_units_Z   1
loop_
 _symmetry_equiv_pos_site_id
 _symmetry_equiv_pos_as_xyz
  1  'x, y, z'
loop_
 _atom_site_type_symbol
 _atom_site_label
 _atom_site_symmetry_multiplicity
 _atom_site_fract_x
 _atom_site_fract_y
 _atom_site_fract_z
 _atom_site_occupancy
  Sr  Sr0  1  0.44546869  0.03431061  0.76196480  1
  Cd  Cd1  1  0.94551629  0.53474271  0.26220009  1
  O  O2  1  0.44546226  0.03478898  0.26248890  1
  O  O3  1  0.94552886  0.53497708  0.76162887  1
