# generated using pymatgen
data_SrCe2(SF2)2
_symmetry_space_group_name_H-M   'P 1'
_cell_length_a   4.02253199
_cell_length_b   4.01985312
_cell_length_c   10.19584560
_cell_angle_alpha   101.36579132
_cell_angle_beta   101.29198456
_cell_angle_gamma   90.17074585
_symmetry_Int_Tables_number   1
_chemical_formula_structural   SrCe2(SF2)2
_chemical_formula_sum   'Sr1 Ce2 S2 F4'
_cell_volume   158.35638132
_cell_formula_units_Z   1
loop_
 _symmetry_equiv_pos_site_id
 _symmetry_equiv_pos_as_xyz
  1  'x, y, z'
loop_
 _atom_site_type_symbol
 _atom_site_label
 _atom_site_symmetry_multiplicity
 _atom_site_fract_x
 _atom_site_fract_y
 _atom_site_fract_z
 _atom_site_occupancy
  Sr  Sr0  1  0.15274714  0.34822226  0.60737550  1
  Ce  Ce1  1  0.49844125  0.69462854  0.29655790  1
  Ce  Ce2  1  0.84388471  0.03750535  0.98104858  1
  S  S3  1  0.31026322  0.50645363  0.91434240  1
  S  S4  1  0.69337004  0.89056569  0.68872565  1
  F  F5  1  0.42578888  0.12522180  0.15395595  1
  F  F6  1  0.56630248  0.26234514  0.43346399  1
  F  F7  1  0.92566949  0.62303919  0.15369567  1
  F  F8  1  0.06670499  0.76145923  0.43325925  1
