# generated using pymatgen
data_SrEu(CoO3)2
_symmetry_space_group_name_H-M   'P 1'
_cell_length_a   5.07383871
_cell_length_b   5.09421778
_cell_length_c   5.08061838
_cell_angle_alpha   65.97073364
_cell_angle_beta   81.81865692
_cell_angle_gamma   93.50669098
_symmetry_Int_Tables_number   1
_chemical_formula_structural   SrEu(CoO3)2
_chemical_formula_sum   'Sr1 Eu1 Co2 O6'
_cell_volume   117.68381836
_cell_formula_units_Z   1
loop_
 _symmetry_equiv_pos_site_id
 _symmetry_equiv_pos_as_xyz
  1  'x, y, z'
loop_
 _atom_site_type_symbol
 _atom_site_label
 _atom_site_symmetry_multiplicity
 _atom_site_fract_x
 _atom_site_fract_y
 _atom_site_fract_z
 _atom_site_occupancy
  Sr  Sr0  1  0.55693412  0.10422865  0.83811331  1
  Eu  Eu1  1  0.55777216  0.60474628  0.33886492  1
  Co  Co2  1  0.05804374  0.85202378  0.59071481  1
  Co  Co3  1  0.06001193  0.35254604  0.09052044  1
  O  O4  1  0.05053883  0.10094517  0.84686887  1
  O  O5  1  0.05645400  0.60649842  0.34697929  1
  O  O6  1  0.31367815  0.65122265  0.77423441  1
  O  O7  1  0.81858897  0.05430206  0.39390618  1
  O  O8  1  0.31437442  0.15824945  0.28796402  1
  O  O9  1  0.81944454  0.55928183  0.89286125  1
