# generated using pymatgen
data_SrHfS3
_symmetry_space_group_name_H-M   'P 1'
_cell_length_a   6.71575117
_cell_length_b   7.11954737
_cell_length_c   9.65121460
_cell_angle_alpha   89.85768890
_cell_angle_beta   89.99430084
_cell_angle_gamma   90.08950806
_symmetry_Int_Tables_number   1
_chemical_formula_structural   SrHfS3
_chemical_formula_sum   'Sr4 Hf4 S12'
_cell_volume   461.45258250
_cell_formula_units_Z   4
loop_
 _symmetry_equiv_pos_site_id
 _symmetry_equiv_pos_as_xyz
  1  'x, y, z'
loop_
 _atom_site_type_symbol
 _atom_site_label
 _atom_site_symmetry_multiplicity
 _atom_site_fract_x
 _atom_site_fract_y
 _atom_site_fract_z
 _atom_site_occupancy
  Sr  Sr0  1  0.97787082  0.54288048  0.15360676  1
  Sr  Sr1  1  0.52431101  0.04233875  0.15385938  1
  Sr  Sr2  1  0.47717187  0.88062835  0.65383381  1
  Sr  Sr3  1  0.02466042  0.38150236  0.65361094  1
  Hf  Hf4  1  0.50238335  0.46184939  0.40337378  1
  Hf  Hf5  1  0.00148916  0.96219373  0.40376458  1
  Hf  Hf6  1  0.50282478  0.46264338  0.90359867  1
  Hf  Hf7  1  0.00233531  0.96209282  0.90369338  1
  S  S8  1  0.80891651  0.26628268  0.35588732  1
  S  S9  1  0.19535351  0.65816855  0.85627484  1
  S  S10  1  0.30782765  0.15842432  0.45028028  1
  S  S11  1  0.69552439  0.76605737  0.35723683  1
  S  S12  1  0.59845644  0.47863713  0.65297866  1
  S  S13  1  0.80795705  0.26559305  0.95083970  1
  S  S14  1  0.40838823  0.44591743  0.15369624  1
  S  S15  1  0.30857646  0.15901466  0.85660613  1
  S  S16  1  0.19537854  0.65766007  0.45053837  1
  S  S17  1  0.09815696  0.94354594  0.15242361  1
  S  S18  1  0.90773016  0.97905916  0.65388548  1
  S  S19  1  0.69521755  0.76558781  0.95051748  1
