# generated using pymatgen
data_SrMgTl2
_symmetry_space_group_name_H-M   'P 1'
_cell_length_a   5.52486134
_cell_length_b   5.50588417
_cell_length_c   5.50784683
_cell_angle_alpha   59.75277710
_cell_angle_beta   59.97558594
_cell_angle_gamma   60.04972458
_symmetry_Int_Tables_number   1
_chemical_formula_structural   SrMgTl2
_chemical_formula_sum   'Sr1 Mg1 Tl2'
_cell_volume   118.27138357
_cell_formula_units_Z   1
loop_
 _symmetry_equiv_pos_site_id
 _symmetry_equiv_pos_as_xyz
  1  'x, y, z'
loop_
 _atom_site_type_symbol
 _atom_site_label
 _atom_site_symmetry_multiplicity
 _atom_site_fract_x
 _atom_site_fract_y
 _atom_site_fract_z
 _atom_site_occupancy
  Sr  Sr0  1  0.74011624  0.58732378  0.33536619  1
  Mg  Mg1  1  0.23964693  0.08723821  0.83521581  1
  Tl  Tl2  1  0.98981822  0.83746111  0.58521080  1
  Tl  Tl3  1  0.48957136  0.33725259  0.08551160  1
