# generated using pymatgen
data_SrNdCrO4
_symmetry_space_group_name_H-M   'P 1'
_cell_length_a   3.94895720
_cell_length_b   3.94487166
_cell_length_c   6.74800825
_cell_angle_alpha   106.59716034
_cell_angle_beta   106.62706757
_cell_angle_gamma   89.86848450
_symmetry_Int_Tables_number   1
_chemical_formula_structural   SrNdCrO4
_chemical_formula_sum   'Sr1 Nd1 Cr1 O4'
_cell_volume   96.16750590
_cell_formula_units_Z   1
loop_
 _symmetry_equiv_pos_site_id
 _symmetry_equiv_pos_as_xyz
  1  'x, y, z'
loop_
 _atom_site_type_symbol
 _atom_site_label
 _atom_site_symmetry_multiplicity
 _atom_site_fract_x
 _atom_site_fract_y
 _atom_site_fract_z
 _atom_site_occupancy
  Sr  Sr0  1  0.81850392  0.76140565  0.29255995  1
  Nd  Nd1  1  0.53471065  0.47509024  0.72522736  1
  Cr  Cr2  1  0.17856231  0.12155093  0.01227136  1
  O  O3  1  0.66630560  0.10902809  0.98908454  1
  O  O4  1  0.00872078  0.95321047  0.67621940  1
  O  O5  1  0.16624127  0.60849351  0.98938727  1
  O  O6  1  0.34831178  0.28989738  0.35151359  1
