# generated using pymatgen
data_SrO2
_symmetry_space_group_name_H-M   'P 1'
_cell_length_a   3.83957434
_cell_length_b   4.07219839
_cell_length_c   4.10384893
_cell_angle_alpha   77.92091370
_cell_angle_beta   63.20603561
_cell_angle_gamma   63.42469025
_symmetry_Int_Tables_number   1
_chemical_formula_structural   SrO2
_chemical_formula_sum   'Sr1 O2'
_cell_volume   51.22275393
_cell_formula_units_Z   1
loop_
 _symmetry_equiv_pos_site_id
 _symmetry_equiv_pos_as_xyz
  1  'x, y, z'
loop_
 _atom_site_type_symbol
 _atom_site_label
 _atom_site_symmetry_multiplicity
 _atom_site_fract_x
 _atom_site_fract_y
 _atom_site_fract_z
 _atom_site_occupancy
  Sr  Sr0  1  0.53047717  0.75740403  0.89297891  1
  O  O1  1  0.02991865  0.39342061  0.25779819  1
  O  O2  1  0.03112649  0.13509722  0.52084726  1
