# generated using pymatgen
data_SrTiFe3(BiO4)3
_symmetry_space_group_name_H-M   'P 1'
_cell_length_a   5.58068085
_cell_length_b   5.76508665
_cell_length_c   7.85238504
_cell_angle_alpha   89.98146820
_cell_angle_beta   89.71002960
_cell_angle_gamma   90.00589752
_symmetry_Int_Tables_number   1
_chemical_formula_structural   SrTiFe3(BiO4)3
_chemical_formula_sum   'Sr1 Ti1 Fe3 Bi3 O12'
_cell_volume   252.63238724
_cell_formula_units_Z   1
loop_
 _symmetry_equiv_pos_site_id
 _symmetry_equiv_pos_as_xyz
  1  'x, y, z'
loop_
 _atom_site_type_symbol
 _atom_site_label
 _atom_site_symmetry_multiplicity
 _atom_site_fract_x
 _atom_site_fract_y
 _atom_site_fract_z
 _atom_site_occupancy
  Sr  Sr0  1  0.98460180  0.42942885  0.72031689  1
  Ti  Ti1  1  0.98155344  0.88506871  0.46818006  1
  Fe  Fe2  1  0.47704613  0.38589758  0.96861148  1
  Fe  Fe3  1  0.97783923  0.88515925  0.96922523  1
  Fe  Fe4  1  0.47569239  0.38518339  0.46923813  1
  Bi  Bi5  1  0.48450786  0.83882302  0.21740296  1
  Bi  Bi6  1  0.96696061  0.33650416  0.21805489  1
  Bi  Bi7  1  0.46512944  0.93779981  0.72182417  1
  O  O8  1  0.88012576  0.86585301  0.71709311  1
  O  O9  1  0.67906052  0.08046693  0.41889361  1
  O  O10  1  0.18077958  0.17220324  0.92490309  1
  O  O11  1  0.37907976  0.42139342  0.22004166  1
  O  O12  1  0.54736596  0.34975260  0.71936232  1
  O  O13  1  0.78257346  0.59218359  0.41938931  1
  O  O14  1  0.07784062  0.91272002  0.22306849  1
  O  O15  1  0.67514449  0.08362536  0.01839509  1
  O  O16  1  0.28199488  0.68641889  0.91832334  1
  O  O17  1  0.28041661  0.69273901  0.51828074  1
  O  O18  1  0.16995202  0.17244063  0.51195598  1
  O  O19  1  0.78081906  0.58445376  0.01715241  1
