# generated using pymatgen
data_SrZnSi
_symmetry_space_group_name_H-M   'P 1'
_cell_length_a   4.30930567
_cell_length_b   4.28676081
_cell_length_c   4.66550112
_cell_angle_alpha   89.75038910
_cell_angle_beta   89.71602631
_cell_angle_gamma   120.24992371
_symmetry_Int_Tables_number   1
_chemical_formula_structural   SrZnSi
_chemical_formula_sum   'Sr1 Zn1 Si1'
_cell_volume   74.44700567
_cell_formula_units_Z   1
loop_
 _symmetry_equiv_pos_site_id
 _symmetry_equiv_pos_as_xyz
  1  'x, y, z'
loop_
 _atom_site_type_symbol
 _atom_site_label
 _atom_site_symmetry_multiplicity
 _atom_site_fract_x
 _atom_site_fract_y
 _atom_site_fract_z
 _atom_site_occupancy
  Sr  Sr0  1  0.37398389  0.05168205  0.75237185  1
  Zn  Zn1  1  0.70667511  0.71968383  0.25172123  1
  Si  Si2  1  0.03959742  0.38559687  0.25229082  1
