# generated using pymatgen
data_Ta2CS2
_symmetry_space_group_name_H-M   'P 1'
_cell_length_a   3.27286124
_cell_length_b   3.27704358
_cell_length_c   8.73180199
_cell_angle_alpha   89.90453339
_cell_angle_beta   89.93885803
_cell_angle_gamma   121.08777618
_symmetry_Int_Tables_number   1
_chemical_formula_structural   Ta2CS2
_chemical_formula_sum   'Ta2 C1 S2'
_cell_volume   80.20050727
_cell_formula_units_Z   1
loop_
 _symmetry_equiv_pos_site_id
 _symmetry_equiv_pos_as_xyz
  1  'x, y, z'
loop_
 _atom_site_type_symbol
 _atom_site_label
 _atom_site_symmetry_multiplicity
 _atom_site_fract_x
 _atom_site_fract_y
 _atom_site_fract_z
 _atom_site_occupancy
  Ta  Ta0  1  0.98130310  0.94022143  0.25952944  1
  Ta  Ta1  1  0.64757192  0.27346107  0.52377224  1
  C  C2  1  0.31398046  0.60683173  0.39178920  1
  S  S3  1  0.64729697  0.27361456  0.08082626  1
  S  S4  1  0.98132217  0.94024390  0.69960392  1
