# generated using pymatgen
data_Ta2RuW
_symmetry_space_group_name_H-M   'P 1'
_cell_length_a   4.55006552
_cell_length_b   4.54524231
_cell_length_c   4.53488493
_cell_angle_alpha   59.72259903
_cell_angle_beta   59.76143646
_cell_angle_gamma   59.74958801
_symmetry_Int_Tables_number   1
_chemical_formula_structural   Ta2RuW
_chemical_formula_sum   'Ta2 Ru1 W1'
_cell_volume   65.93243659
_cell_formula_units_Z   1
loop_
 _symmetry_equiv_pos_site_id
 _symmetry_equiv_pos_as_xyz
  1  'x, y, z'
loop_
 _atom_site_type_symbol
 _atom_site_label
 _atom_site_symmetry_multiplicity
 _atom_site_fract_x
 _atom_site_fract_y
 _atom_site_fract_z
 _atom_site_occupancy
  Ta  Ta0  1  0.10277485  0.17357478  0.80616754  1
  Ta  Ta1  1  0.60288125  0.67327642  0.30598283  1
  Ru  Ru2  1  0.35300058  0.42398894  0.05621715  1
  W  W3  1  0.85299760  0.92373502  0.55619252  1
