# generated using pymatgen
data_Ta3Mo3N4
_symmetry_space_group_name_H-M   'P 1'
_cell_length_a   5.17660904
_cell_length_b   5.19563246
_cell_length_c   5.38620234
_cell_angle_alpha   97.97026062
_cell_angle_beta   97.64707947
_cell_angle_gamma   119.00066376
_symmetry_Int_Tables_number   1
_chemical_formula_structural   Ta3Mo3N4
_chemical_formula_sum   'Ta3 Mo3 N4'
_cell_volume   122.07694466
_cell_formula_units_Z   1
loop_
 _symmetry_equiv_pos_site_id
 _symmetry_equiv_pos_as_xyz
  1  'x, y, z'
loop_
 _atom_site_type_symbol
 _atom_site_label
 _atom_site_symmetry_multiplicity
 _atom_site_fract_x
 _atom_site_fract_y
 _atom_site_fract_z
 _atom_site_occupancy
  Ta  Ta0  1  0.20168127  0.14623442  0.77050734  1
  Ta  Ta1  1  0.53409261  0.81234574  0.77281952  1
  Ta  Ta2  1  0.02920908  0.31819782  0.27069041  1
  Mo  Mo3  1  0.36217865  0.98309529  0.27079391  1
  Mo  Mo4  1  0.86563152  0.48163745  0.77519453  1
  Mo  Mo5  1  0.70030361  0.64746839  0.27588344  1
  N  N6  1  0.77630156  0.07227233  0.52528948  1
  N  N7  1  0.12076620  0.72546959  0.52553195  1
  N  N8  1  0.61349809  0.22948185  0.02542358  1
  N  N9  1  0.95050019  0.89800042  0.02459394  1
