# generated using pymatgen
data_TaBeRu2
_symmetry_space_group_name_H-M   'P 1'
_cell_length_a   4.28388405
_cell_length_b   4.26247835
_cell_length_c   4.26305103
_cell_angle_alpha   59.78333282
_cell_angle_beta   59.81491852
_cell_angle_gamma   59.86444855
_symmetry_Int_Tables_number   1
_chemical_formula_structural   TaBeRu2
_chemical_formula_sum   'Ta1 Be1 Ru2'
_cell_volume   54.81960372
_cell_formula_units_Z   1
loop_
 _symmetry_equiv_pos_site_id
 _symmetry_equiv_pos_as_xyz
  1  'x, y, z'
loop_
 _atom_site_type_symbol
 _atom_site_label
 _atom_site_symmetry_multiplicity
 _atom_site_fract_x
 _atom_site_fract_y
 _atom_site_fract_z
 _atom_site_occupancy
  Ta  Ta0  1  0.10437565  0.95941836  0.91045845  1
  Be  Be1  1  0.60421067  0.45934683  0.41040647  1
  Ru  Ru2  1  0.35412672  0.20985921  0.16054016  1
  Ru  Ru3  1  0.85443866  0.70936173  0.65999550  1
