# generated using pymatgen
data_TaCo3
_symmetry_space_group_name_H-M   'P 1'
_cell_length_a   3.70025349
_cell_length_b   3.68459511
_cell_length_c   3.68160295
_cell_angle_alpha   89.78498840
_cell_angle_beta   89.76538849
_cell_angle_gamma   90.00672150
_symmetry_Int_Tables_number   1
_chemical_formula_structural   TaCo3
_chemical_formula_sum   'Ta1 Co3'
_cell_volume   50.19396400
_cell_formula_units_Z   1
loop_
 _symmetry_equiv_pos_site_id
 _symmetry_equiv_pos_as_xyz
  1  'x, y, z'
loop_
 _atom_site_type_symbol
 _atom_site_label
 _atom_site_symmetry_multiplicity
 _atom_site_fract_x
 _atom_site_fract_y
 _atom_site_fract_z
 _atom_site_occupancy
  Ta  Ta0  1  0.59860569  0.34883761  0.57269174  1
  Co  Co1  1  0.09855226  0.34915033  0.07337690  1
  Co  Co2  1  0.59853494  0.84873515  0.07270233  1
  Co  Co3  1  0.09839987  0.84910119  0.57274878  1
