# generated using pymatgen
data_TaCoNi2
_symmetry_space_group_name_H-M   'P 1'
_cell_length_a   4.25689840
_cell_length_b   5.14159870
_cell_length_c   5.14653301
_cell_angle_alpha   60.34989929
_cell_angle_beta   89.54277802
_cell_angle_gamma   89.96148682
_symmetry_Int_Tables_number   1
_chemical_formula_structural   TaCoNi2
_chemical_formula_sum   'Ta2 Co2 Ni4'
_cell_volume   97.89047016
_cell_formula_units_Z   2
loop_
 _symmetry_equiv_pos_site_id
 _symmetry_equiv_pos_as_xyz
  1  'x, y, z'
loop_
 _atom_site_type_symbol
 _atom_site_label
 _atom_site_symmetry_multiplicity
 _atom_site_fract_x
 _atom_site_fract_y
 _atom_site_fract_z
 _atom_site_occupancy
  Ta  Ta0  1  0.40378332  0.14715180  0.20492189  1
  Ta  Ta1  1  0.90316153  0.81615180  0.87206709  1
  Co  Co2  1  0.40341985  0.15352860  0.70163208  1
  Co  Co3  1  0.40297478  0.64491487  0.21272770  1
  Ni  Ni4  1  0.40309608  0.64541394  0.70266581  1
  Ni  Ni5  1  0.90302753  0.31985217  0.37347534  1
  Ni  Ni6  1  0.90320158  0.81036747  0.37432626  1
  Ni  Ni7  1  0.90332818  0.31947431  0.86690187  1
