# generated using pymatgen
data_TaCr2
_symmetry_space_group_name_H-M   'P 1'
_cell_length_a   4.89486933
_cell_length_b   4.90096903
_cell_length_c   4.89887667
_cell_angle_alpha   59.99925232
_cell_angle_beta   59.99180603
_cell_angle_gamma   59.74210358
_symmetry_Int_Tables_number   1
_chemical_formula_structural   TaCr2
_chemical_formula_sum   'Ta2 Cr4'
_cell_volume   82.93191808
_cell_formula_units_Z   2
loop_
 _symmetry_equiv_pos_site_id
 _symmetry_equiv_pos_as_xyz
  1  'x, y, z'
loop_
 _atom_site_type_symbol
 _atom_site_label
 _atom_site_symmetry_multiplicity
 _atom_site_fract_x
 _atom_site_fract_y
 _atom_site_fract_z
 _atom_site_occupancy
  Ta  Ta0  1  0.57825065  0.07453080  0.91183543  1
  Ta  Ta1  1  0.83027136  0.32636505  0.16257794  1
  Cr  Cr2  1  0.20326830  0.70025319  0.03733659  1
  Cr  Cr3  1  0.20328780  0.20051937  0.53678942  1
  Cr  Cr4  1  0.20284802  0.69960809  0.53709954  1
  Cr  Cr5  1  0.70302546  0.70017236  0.53714365  1
