# generated using pymatgen
data_TaCu3Se4
_symmetry_space_group_name_H-M   'P 1'
_cell_length_a   5.67992496
_cell_length_b   5.68058586
_cell_length_c   5.69719982
_cell_angle_alpha   89.97044373
_cell_angle_beta   89.74530029
_cell_angle_gamma   90.04942322
_symmetry_Int_Tables_number   1
_chemical_formula_structural   TaCu3Se4
_chemical_formula_sum   'Ta1 Cu3 Se4'
_cell_volume   183.81996018
_cell_formula_units_Z   1
loop_
 _symmetry_equiv_pos_site_id
 _symmetry_equiv_pos_as_xyz
  1  'x, y, z'
loop_
 _atom_site_type_symbol
 _atom_site_label
 _atom_site_symmetry_multiplicity
 _atom_site_fract_x
 _atom_site_fract_y
 _atom_site_fract_z
 _atom_site_occupancy
  Ta  Ta0  1  0.56918067  0.49127376  0.59063560  1
  Cu  Cu1  1  0.56939608  0.99161613  0.59019309  1
  Cu  Cu2  1  0.56960398  0.49204046  0.09001309  1
  Cu  Cu3  1  0.06974217  0.49219909  0.59009087  1
  Se  Se4  1  0.82020110  0.23846287  0.33990258  1
  Se  Se5  1  0.81969965  0.74523652  0.84217846  1
  Se  Se6  1  0.31886986  0.23879053  0.84091294  1
  Se  Se7  1  0.31889680  0.74160892  0.34001556  1
