# generated using pymatgen
data_TaSe3
_symmetry_space_group_name_H-M   'P 1'
_cell_length_a   3.56700897
_cell_length_b   9.57286835
_cell_length_c   13.15663433
_cell_angle_alpha   102.35497284
_cell_angle_beta   89.75595093
_cell_angle_gamma   90.12682343
_symmetry_Int_Tables_number   1
_chemical_formula_structural   TaSe3
_chemical_formula_sum   'Ta4 Se12'
_cell_volume   438.84436560
_cell_formula_units_Z   4
loop_
 _symmetry_equiv_pos_site_id
 _symmetry_equiv_pos_as_xyz
  1  'x, y, z'
loop_
 _atom_site_type_symbol
 _atom_site_label
 _atom_site_symmetry_multiplicity
 _atom_site_fract_x
 _atom_site_fract_y
 _atom_site_fract_z
 _atom_site_occupancy
  Ta  Ta0  1  0.95325935  0.28241843  0.24489558  1
  Ta  Ta1  1  0.95339602  0.49727514  0.99016196  1
  Ta  Ta2  1  0.45312729  0.00942825  0.50831246  1
  Ta  Ta3  1  0.45338032  0.78451359  0.00247359  1
  Se  Se4  1  0.45404461  0.58255947  0.60743731  1
  Se  Se5  1  0.45417041  0.06481016  0.16097197  1
  Se  Se6  1  0.45395932  0.37132016  0.10542956  1
  Se  Se7  1  0.95396292  0.14028858  0.40954775  1
  Se  Se8  1  0.95357221  0.96333444  0.93598098  1
  Se  Se9  1  0.95396161  0.17507780  0.63128096  1
  Se  Se10  1  0.45423955  0.47049156  0.35202557  1
  Se  Se11  1  0.95360917  0.83235049  0.41959909  1
  Se  Se12  1  0.45389253  0.87455201  0.66157931  1
  Se  Se13  1  0.95415151  0.63475293  0.85421836  1
  Se  Se14  1  0.95408344  0.71897477  0.13416557  1
  Se  Se15  1  0.45434549  0.33334503  0.86832112  1
