# generated using pymatgen
data_Tb12Co5Bi
_symmetry_space_group_name_H-M   'P 1'
_cell_length_a   8.54074764
_cell_length_b   8.56692791
_cell_length_c   8.58380890
_cell_angle_alpha   108.68905640
_cell_angle_beta   109.04449463
_cell_angle_gamma   109.12878418
_symmetry_Int_Tables_number   1
_chemical_formula_structural   Tb12Co5Bi
_chemical_formula_sum   'Tb12 Co5 Bi1'
_cell_volume   492.51350833
_cell_formula_units_Z   1
loop_
 _symmetry_equiv_pos_site_id
 _symmetry_equiv_pos_as_xyz
  1  'x, y, z'
loop_
 _atom_site_type_symbol
 _atom_site_label
 _atom_site_symmetry_multiplicity
 _atom_site_fract_x
 _atom_site_fract_y
 _atom_site_fract_z
 _atom_site_occupancy
  Tb  Tb0  1  0.27777407  0.12436273  0.28883481  1
  Tb  Tb1  1  0.18374082  0.85676855  0.78149325  1
  Tb  Tb2  1  0.99540699  0.10619441  0.57889360  1
  Tb  Tb3  1  0.72561628  0.56802529  0.47479525  1
  Tb  Tb4  1  0.47940531  0.30378324  0.02777921  1
  Tb  Tb5  1  0.85036844  0.72824293  0.13877018  1
  Tb  Tb6  1  0.20447966  0.55963045  0.02487969  1
  Tb  Tb7  1  0.39941990  0.53677887  0.70834130  1
  Tb  Tb8  1  0.41406643  0.85243857  0.47215164  1
  Tb  Tb9  1  0.99592006  0.39874008  0.28835183  1
  Tb  Tb10  1  0.80508286  0.97607839  0.88858348  1
  Tb  Tb11  1  0.73036104  0.30340809  0.73058861  1
  Co  Co12  1  0.35272706  0.17708331  0.65839458  1
  Co  Co13  1  0.05326269  0.77971667  0.41438177  1
  Co  Co14  1  0.02026955  0.47556505  0.65748507  1
  Co  Co15  1  0.35249478  0.47359163  0.33047584  1
  Co  Co16  1  0.10424649  0.20151824  0.97504741  1
  Bi  Bi17  1  0.60048813  0.97434044  0.15830648  1
