# generated using pymatgen
data_Tb2Al3Pt
_symmetry_space_group_name_H-M   'P 1'
_cell_length_a   5.56583023
_cell_length_b   5.55454922
_cell_length_c   5.55508614
_cell_angle_alpha   60.56754684
_cell_angle_beta   60.43821335
_cell_angle_gamma   60.41829681
_symmetry_Int_Tables_number   1
_chemical_formula_structural   Tb2Al3Pt
_chemical_formula_sum   'Tb2 Al3 Pt1'
_cell_volume   122.74048970
_cell_formula_units_Z   1
loop_
 _symmetry_equiv_pos_site_id
 _symmetry_equiv_pos_as_xyz
  1  'x, y, z'
loop_
 _atom_site_type_symbol
 _atom_site_label
 _atom_site_symmetry_multiplicity
 _atom_site_fract_x
 _atom_site_fract_y
 _atom_site_fract_z
 _atom_site_occupancy
  Tb  Tb0  1  0.12754422  0.56341779  0.24260968  1
  Tb  Tb1  1  0.87564558  0.31369281  0.99249166  1
  Al  Al2  1  0.50170505  0.93871582  0.11665799  1
  Al  Al3  1  0.00178682  0.93910283  0.61661494  1
  Al  Al4  1  0.50145644  0.93855578  0.61684972  1
  Pt  Pt5  1  0.50139236  0.43879348  0.61695284  1
