# generated using pymatgen
data_Tb2Co2I
_symmetry_space_group_name_H-M   'P 1'
_cell_length_a   4.00529051
_cell_length_b   3.97563982
_cell_length_c   17.31900597
_cell_angle_alpha   89.89495087
_cell_angle_beta   89.97896576
_cell_angle_gamma   120.03929138
_symmetry_Int_Tables_number   1
_chemical_formula_structural   Tb2Co2I
_chemical_formula_sum   'Tb4 Co4 I2'
_cell_volume   238.73789142
_cell_formula_units_Z   2
loop_
 _symmetry_equiv_pos_site_id
 _symmetry_equiv_pos_as_xyz
  1  'x, y, z'
loop_
 _atom_site_type_symbol
 _atom_site_label
 _atom_site_symmetry_multiplicity
 _atom_site_fract_x
 _atom_site_fract_y
 _atom_site_fract_z
 _atom_site_occupancy
  Tb  Tb0  1  0.22156861  0.39671010  0.64909637  1
  Tb  Tb1  1  0.22228500  0.39602858  0.43637776  1
  Tb  Tb2  1  0.22226353  0.39621779  0.92991054  1
  Tb  Tb3  1  0.22145782  0.39643338  0.15804824  1
  Co  Co4  1  0.88806546  0.72847265  0.04663089  1
  Co  Co5  1  0.55548418  0.06199373  0.54650146  1
  Co  Co6  1  0.55519652  0.06214287  0.00158054  1
  Co  Co7  1  0.55512923  0.06231466  0.08774903  1
  I  I8  1  0.88900214  0.72931701  0.29667896  1
  I  I9  1  0.88875639  0.72941202  0.78331685  1
