# generated using pymatgen
data_Tb2CoGe4
_symmetry_space_group_name_H-M   'P 1'
_cell_length_a   4.04718447
_cell_length_b   4.11145020
_cell_length_c   8.55888081
_cell_angle_alpha   103.67865753
_cell_angle_beta   89.78062439
_cell_angle_gamma   90.03193665
_symmetry_Int_Tables_number   1
_chemical_formula_structural   Tb2CoGe4
_chemical_formula_sum   'Tb2 Co1 Ge4'
_cell_volume   138.37765521
_cell_formula_units_Z   1
loop_
 _symmetry_equiv_pos_site_id
 _symmetry_equiv_pos_as_xyz
  1  'x, y, z'
loop_
 _atom_site_type_symbol
 _atom_site_label
 _atom_site_symmetry_multiplicity
 _atom_site_fract_x
 _atom_site_fract_y
 _atom_site_fract_z
 _atom_site_occupancy
  Tb  Tb0  1  0.66895622  0.74399918  0.65900099  1
  Tb  Tb1  1  0.16934688  0.54105473  0.24514647  1
  Co  Co2  1  0.16920769  0.16161810  0.49212739  1
  Ge  Ge3  1  0.66957951  0.40278184  0.96899140  1
  Ge  Ge4  1  0.17018640  0.90693563  0.97377145  1
  Ge  Ge5  1  0.16981429  0.29385069  0.75019306  1
  Ge  Ge6  1  0.66896152  0.09958918  0.35923386  1
