# generated using pymatgen
data_Tb2IrRh
_symmetry_space_group_name_H-M   'P 1'
_cell_length_a   4.89720869
_cell_length_b   4.90444374
_cell_length_c   4.88594341
_cell_angle_alpha   59.84076691
_cell_angle_beta   59.89579010
_cell_angle_gamma   60.11078644
_symmetry_Int_Tables_number   1
_chemical_formula_structural   Tb2IrRh
_chemical_formula_sum   'Tb2 Ir1 Rh1'
_cell_volume   82.88289361
_cell_formula_units_Z   1
loop_
 _symmetry_equiv_pos_site_id
 _symmetry_equiv_pos_as_xyz
  1  'x, y, z'
loop_
 _atom_site_type_symbol
 _atom_site_label
 _atom_site_symmetry_multiplicity
 _atom_site_fract_x
 _atom_site_fract_y
 _atom_site_fract_z
 _atom_site_occupancy
  Tb  Tb0  1  0.04089760  0.27065560  0.77299023  1
  Tb  Tb1  1  0.54129881  0.77047729  0.27281001  1
  Ir  Ir2  1  0.29122162  0.52101958  0.02296071  1
  Rh  Rh3  1  0.79104513  0.02058814  0.52298582  1
