# generated using pymatgen
data_Tb3Y
_symmetry_space_group_name_H-M   'P 1'
_cell_length_a   5.09458494
_cell_length_b   5.09440470
_cell_length_c   5.07902431
_cell_angle_alpha   89.85550690
_cell_angle_beta   89.70899963
_cell_angle_gamma   89.98522186
_symmetry_Int_Tables_number   1
_chemical_formula_structural   Tb3Y
_chemical_formula_sum   'Tb3 Y1'
_cell_volume   131.81825137
_cell_formula_units_Z   1
loop_
 _symmetry_equiv_pos_site_id
 _symmetry_equiv_pos_as_xyz
  1  'x, y, z'
loop_
 _atom_site_type_symbol
 _atom_site_label
 _atom_site_symmetry_multiplicity
 _atom_site_fract_x
 _atom_site_fract_y
 _atom_site_fract_z
 _atom_site_occupancy
  Tb  Tb0  1  0.55470628  0.85336173  0.20276789  1
  Tb  Tb1  1  0.05467257  0.85350126  0.70277691  1
  Tb  Tb2  1  0.55497563  0.35339218  0.70293599  1
  Y  Y3  1  0.05457891  0.35374320  0.20294315  1
