# generated using pymatgen
data_TbAlPd
_symmetry_space_group_name_H-M   'P 1'
_cell_length_a   4.43371916
_cell_length_b   7.05297756
_cell_length_c   7.82168961
_cell_angle_alpha   89.85264587
_cell_angle_beta   89.95996857
_cell_angle_gamma   89.85968781
_symmetry_Int_Tables_number   1
_chemical_formula_structural   TbAlPd
_chemical_formula_sum   'Tb4 Al4 Pd4'
_cell_volume   244.58984258
_cell_formula_units_Z   4
loop_
 _symmetry_equiv_pos_site_id
 _symmetry_equiv_pos_as_xyz
  1  'x, y, z'
loop_
 _atom_site_type_symbol
 _atom_site_label
 _atom_site_symmetry_multiplicity
 _atom_site_fract_x
 _atom_site_fract_y
 _atom_site_fract_z
 _atom_site_occupancy
  Tb  Tb0  1  0.92817277  0.01145113  0.77637082  1
  Tb  Tb1  1  0.42755002  0.45338246  0.27610311  1
  Tb  Tb2  1  0.42798281  0.95433229  0.14356630  1
  Tb  Tb3  1  0.92791766  0.51068145  0.64388162  1
  Al  Al4  1  0.92775613  0.13066809  0.39516559  1
  Al  Al5  1  0.42775041  0.33207861  0.89523846  1
  Al  Al6  1  0.92770493  0.63148141  0.02549572  1
  Al  Al7  1  0.42767313  0.83150780  0.52529758  1
  Pd  Pd8  1  0.92770267  0.26109841  0.07351750  1
  Pd  Pd9  1  0.42806044  0.20416363  0.57319713  1
  Pd  Pd10  1  0.42768016  0.70432150  0.84814674  1
  Pd  Pd11  1  0.92769367  0.76058972  0.34826788  1
