# generated using pymatgen
data_TbCoO3
_symmetry_space_group_name_H-M   'P 1'
_cell_length_a   5.27123356
_cell_length_b   5.65692139
_cell_length_c   7.47306061
_cell_angle_alpha   89.95620728
_cell_angle_beta   89.97927856
_cell_angle_gamma   89.99986267
_symmetry_Int_Tables_number   1
_chemical_formula_structural   TbCoO3
_chemical_formula_sum   'Tb4 Co4 O12'
_cell_volume   222.83876974
_cell_formula_units_Z   4
loop_
 _symmetry_equiv_pos_site_id
 _symmetry_equiv_pos_as_xyz
  1  'x, y, z'
loop_
 _atom_site_type_symbol
 _atom_site_label
 _atom_site_symmetry_multiplicity
 _atom_site_fract_x
 _atom_site_fract_y
 _atom_site_fract_z
 _atom_site_occupancy
  Tb  Tb0  1  0.85774863  0.15346688  0.69524646  1
  Tb  Tb1  1  0.39778468  0.65342098  0.69512486  1
  Tb  Tb2  1  0.89750898  0.00382915  0.19491223  1
  Tb  Tb3  1  0.35701075  0.50376326  0.19513661  1
  Co  Co4  1  0.37668714  0.07874587  0.94551122  1
  Co  Co5  1  0.87611169  0.57884067  0.44561628  1
  Co  Co6  1  0.87675703  0.57865316  0.94522041  1
  Co  Co7  1  0.37664971  0.07824633  0.44548500  1
  O  O8  1  0.27261737  0.04829744  0.69503498  1
  O  O9  1  0.98116702  0.54822814  0.69468248  1
  O  O10  1  0.07424362  0.27348003  0.99636573  1
  O  O11  1  0.77266002  0.60813820  0.19438188  1
  O  O12  1  0.67932039  0.88426954  0.49628958  1
  O  O13  1  0.17859805  0.77338761  0.39289922  1
  O  O14  1  0.48069975  0.10819887  0.19475763  1
  O  O15  1  0.68056989  0.88410234  0.89303434  1
  O  O16  1  0.07419148  0.27271530  0.39246729  1
  O  O17  1  0.57448769  0.38413885  0.89263797  1
  O  O18  1  0.57487357  0.38352439  0.49646753  1
  O  O19  1  0.17865817  0.77328843  0.99633032  1
