# generated using pymatgen
data_TbCrSe3
_symmetry_space_group_name_H-M   'P 1'
_cell_length_a   6.51218843
_cell_length_b   7.43500710
_cell_length_c   9.50062370
_cell_angle_alpha   89.83476257
_cell_angle_beta   89.83611298
_cell_angle_gamma   89.92188263
_symmetry_Int_Tables_number   1
_chemical_formula_structural   TbCrSe3
_chemical_formula_sum   'Tb4 Cr4 Se12'
_cell_volume   459.99857000
_cell_formula_units_Z   4
loop_
 _symmetry_equiv_pos_site_id
 _symmetry_equiv_pos_as_xyz
  1  'x, y, z'
loop_
 _atom_site_type_symbol
 _atom_site_label
 _atom_site_symmetry_multiplicity
 _atom_site_fract_x
 _atom_site_fract_y
 _atom_site_fract_z
 _atom_site_occupancy
  Tb  Tb0  1  0.98776984  0.98189384  0.80731112  1
  Tb  Tb1  1  0.48811418  0.26053372  0.30723605  1
  Tb  Tb2  1  0.90890664  0.76114070  0.30692449  1
  Tb  Tb3  1  0.40887684  0.48257580  0.80742621  1
  Cr  Cr4  1  0.94416445  0.37132481  0.55752575  1
  Cr  Cr5  1  0.94381541  0.37170237  0.05740476  1
  Cr  Cr6  1  0.44382933  0.87219399  0.05740176  1
  Cr  Cr7  1  0.44462132  0.87167752  0.55765134  1
  Se  Se8  1  0.27556828  0.18707371  0.99649948  1
  Se  Se9  1  0.61969829  0.55690348  0.11731248  1
  Se  Se10  1  0.31162682  0.90965188  0.30683500  1
  Se  Se11  1  0.77543783  0.05753419  0.11724584  1
  Se  Se12  1  0.08487818  0.41047207  0.30714667  1
  Se  Se13  1  0.11899529  0.68563598  0.99671227  1
  Se  Se14  1  0.27563086  0.18728326  0.61678720  1
  Se  Se15  1  0.81190670  0.33556661  0.80673116  1
  Se  Se16  1  0.61933917  0.55686623  0.49690983  1
  Se  Se17  1  0.11958135  0.68679851  0.61650181  1
  Se  Se18  1  0.58523011  0.83630031  0.80667770  1
  Se  Se19  1  0.77542251  0.05664469  0.49586847  1
