# generated using pymatgen
data_TbGaAu2
_symmetry_space_group_name_H-M   'P 1'
_cell_length_a   4.88916683
_cell_length_b   4.88647079
_cell_length_c   4.86144352
_cell_angle_alpha   59.67312241
_cell_angle_beta   59.77097702
_cell_angle_gamma   60.05680084
_symmetry_Int_Tables_number   1
_chemical_formula_structural   TbGaAu2
_chemical_formula_sum   'Tb1 Ga1 Au2'
_cell_volume   81.81385895
_cell_formula_units_Z   1
loop_
 _symmetry_equiv_pos_site_id
 _symmetry_equiv_pos_as_xyz
  1  'x, y, z'
loop_
 _atom_site_type_symbol
 _atom_site_label
 _atom_site_symmetry_multiplicity
 _atom_site_fract_x
 _atom_site_fract_y
 _atom_site_fract_z
 _atom_site_occupancy
  Tb  Tb0  1  0.98034477  0.29252365  0.36052692  1
  Ga  Ga1  1  0.48030913  0.79253209  0.86047792  1
  Au  Au2  1  0.73043478  0.04353068  0.11054431  1
  Au  Au3  1  0.23066613  0.54337186  0.61053973  1
