# generated using pymatgen
data_TbHoAl4
_symmetry_space_group_name_H-M   'P 1'
_cell_length_a   5.60562801
_cell_length_b   5.59848118
_cell_length_c   5.61186028
_cell_angle_alpha   60.04562378
_cell_angle_beta   60.15065384
_cell_angle_gamma   60.07955551
_symmetry_Int_Tables_number   1
_chemical_formula_structural   TbHoAl4
_chemical_formula_sum   'Tb1 Ho1 Al4'
_cell_volume   124.79277934
_cell_formula_units_Z   1
loop_
 _symmetry_equiv_pos_site_id
 _symmetry_equiv_pos_as_xyz
  1  'x, y, z'
loop_
 _atom_site_type_symbol
 _atom_site_label
 _atom_site_symmetry_multiplicity
 _atom_site_fract_x
 _atom_site_fract_y
 _atom_site_fract_z
 _atom_site_occupancy
  Tb  Tb0  1  0.81430554  0.48728552  0.85491168  1
  Ho  Ho1  1  0.06414064  0.73787552  0.10576067  1
  Al  Al2  1  0.43898809  0.11268459  0.47922269  1
  Al  Al3  1  0.93916672  0.11211557  0.47886425  1
  Al  Al4  1  0.43915394  0.11275125  0.97934908  1
  Al  Al5  1  0.43916300  0.61226535  0.47855499  1
