# generated using pymatgen
data_TbLuHg2
_symmetry_space_group_name_H-M   'P 1'
_cell_length_a   5.21674967
_cell_length_b   5.25116444
_cell_length_c   5.23040199
_cell_angle_alpha   59.88265610
_cell_angle_beta   59.94490433
_cell_angle_gamma   59.93771744
_symmetry_Int_Tables_number   1
_chemical_formula_structural   TbLuHg2
_chemical_formula_sum   'Tb1 Lu1 Hg2'
_cell_volume   101.13556734
_cell_formula_units_Z   1
loop_
 _symmetry_equiv_pos_site_id
 _symmetry_equiv_pos_as_xyz
  1  'x, y, z'
loop_
 _atom_site_type_symbol
 _atom_site_label
 _atom_site_symmetry_multiplicity
 _atom_site_fract_x
 _atom_site_fract_y
 _atom_site_fract_z
 _atom_site_occupancy
  Tb  Tb0  1  0.31678468  0.37111992  0.64136755  1
  Lu  Lu1  1  0.81687337  0.87140757  0.14178687  1
  Hg  Hg2  1  0.56690848  0.62171996  0.89120466  1
  Hg  Hg3  1  0.06704027  0.12145825  0.39115089  1
