# generated using pymatgen
data_TbNd(NiGe2)2
_symmetry_space_group_name_H-M   'P 1'
_cell_length_a   4.18551970
_cell_length_b   4.23565769
_cell_length_c   8.74935341
_cell_angle_alpha   103.63716888
_cell_angle_beta   89.46268463
_cell_angle_gamma   90.23925781
_symmetry_Int_Tables_number   1
_chemical_formula_structural   TbNd(NiGe2)2
_chemical_formula_sum   'Tb1 Nd1 Ni2 Ge4'
_cell_volume   150.73246544
_cell_formula_units_Z   1
loop_
 _symmetry_equiv_pos_site_id
 _symmetry_equiv_pos_as_xyz
  1  'x, y, z'
loop_
 _atom_site_type_symbol
 _atom_site_label
 _atom_site_symmetry_multiplicity
 _atom_site_fract_x
 _atom_site_fract_y
 _atom_site_fract_z
 _atom_site_occupancy
  Tb  Tb0  1  0.46650565  0.14806618  0.22127704  1
  Nd  Nd1  1  0.96657807  0.36107707  0.64858633  1
  Ni  Ni2  1  0.46564281  0.93758780  0.79917729  1
  Ni  Ni3  1  0.96638131  0.57196027  0.07668538  1
  Ge  Ge4  1  0.46622705  0.50847954  0.93887061  1
  Ge  Ge5  1  0.46647540  0.79642391  0.52076960  1
  Ge  Ge6  1  0.96622896  0.71138889  0.34531099  1
  Ge  Ge7  1  0.96601290  0.00603633  0.93953770  1
