# generated using pymatgen
data_TbNiSb2
_symmetry_space_group_name_H-M   'P 1'
_cell_length_a   4.38715982
_cell_length_b   4.37463236
_cell_length_c   9.49233055
_cell_angle_alpha   89.91019440
_cell_angle_beta   89.88794708
_cell_angle_gamma   90.19453430
_symmetry_Int_Tables_number   1
_chemical_formula_structural   TbNiSb2
_chemical_formula_sum   'Tb2 Ni2 Sb4'
_cell_volume   182.17718981
_cell_formula_units_Z   2
loop_
 _symmetry_equiv_pos_site_id
 _symmetry_equiv_pos_as_xyz
  1  'x, y, z'
loop_
 _atom_site_type_symbol
 _atom_site_label
 _atom_site_symmetry_multiplicity
 _atom_site_fract_x
 _atom_site_fract_y
 _atom_site_fract_z
 _atom_site_occupancy
  Tb  Tb0  1  0.25320029  0.64178872  0.08092392  1
  Tb  Tb1  1  0.75254816  0.14175723  0.61371243  1
  Ni  Ni2  1  0.75294924  0.14148052  0.21950738  1
  Ni  Ni3  1  0.25250208  0.64148039  0.47305140  1
  Sb  Sb4  1  0.75233454  0.14152417  0.95712084  1
  Sb  Sb5  1  0.25268018  0.64195579  0.73531926  1
  Sb  Sb6  1  0.75243169  0.64206928  0.34613207  1
  Sb  Sb7  1  0.25274339  0.14197005  0.34590837  1
