# generated using pymatgen
data_TbSmRh2
_symmetry_space_group_name_H-M   'P 1'
_cell_length_a   4.90027380
_cell_length_b   4.90259790
_cell_length_c   4.90983152
_cell_angle_alpha   59.75587463
_cell_angle_beta   59.91050339
_cell_angle_gamma   59.97974777
_symmetry_Int_Tables_number   1
_chemical_formula_structural   TbSmRh2
_chemical_formula_sum   'Tb1 Sm1 Rh2'
_cell_volume   83.18228232
_cell_formula_units_Z   1
loop_
 _symmetry_equiv_pos_site_id
 _symmetry_equiv_pos_as_xyz
  1  'x, y, z'
loop_
 _atom_site_type_symbol
 _atom_site_label
 _atom_site_symmetry_multiplicity
 _atom_site_fract_x
 _atom_site_fract_y
 _atom_site_fract_z
 _atom_site_occupancy
  Tb  Tb0  1  0.97664058  0.11977211  0.21780309  1
  Sm  Sm1  1  0.47630090  0.61964035  0.71778411  1
  Rh  Rh2  1  0.72656745  0.86958504  0.96739751  1
  Rh  Rh3  1  0.22620328  0.36968556  0.46763781  1
