# generated using pymatgen
data_TbSm3
_symmetry_space_group_name_H-M   'P 1'
_cell_length_a   5.86207438
_cell_length_b   7.31973791
_cell_length_c   7.32213163
_cell_angle_alpha   59.88071823
_cell_angle_beta   89.99491119
_cell_angle_gamma   89.98180389
_symmetry_Int_Tables_number   1
_chemical_formula_structural   TbSm3
_chemical_formula_sum   'Tb2 Sm6'
_cell_volume   271.76388004
_cell_formula_units_Z   2
loop_
 _symmetry_equiv_pos_site_id
 _symmetry_equiv_pos_as_xyz
  1  'x, y, z'
loop_
 _atom_site_type_symbol
 _atom_site_label
 _atom_site_symmetry_multiplicity
 _atom_site_fract_x
 _atom_site_fract_y
 _atom_site_fract_z
 _atom_site_occupancy
  Tb  Tb0  1  0.69008720  0.97054112  0.38578784  1
  Tb  Tb1  1  0.68971092  0.47048703  0.88501108  1
  Sm  Sm2  1  0.18997908  0.13852668  0.54936719  1
  Sm  Sm3  1  0.68948859  0.47105792  0.38553378  1
  Sm  Sm4  1  0.19006763  0.63839471  0.54999226  1
  Sm  Sm5  1  0.18944466  0.63787210  0.04968899  1
  Sm  Sm6  1  0.19011059  0.13915673  0.04951163  1
  Sm  Sm7  1  0.68954259  0.97056150  0.88468230  1
