# generated using pymatgen
data_TbTc2
_symmetry_space_group_name_H-M   'P 1'
_cell_length_a   5.34405899
_cell_length_b   5.31208849
_cell_length_c   9.07389736
_cell_angle_alpha   89.89382935
_cell_angle_beta   89.81851959
_cell_angle_gamma   120.23536682
_symmetry_Int_Tables_number   1
_chemical_formula_structural   TbTc2
_chemical_formula_sum   'Tb4 Tc8'
_cell_volume   222.54635541
_cell_formula_units_Z   4
loop_
 _symmetry_equiv_pos_site_id
 _symmetry_equiv_pos_as_xyz
  1  'x, y, z'
loop_
 _atom_site_type_symbol
 _atom_site_label
 _atom_site_symmetry_multiplicity
 _atom_site_fract_x
 _atom_site_fract_y
 _atom_site_fract_z
 _atom_site_occupancy
  Tb  Tb0  1  0.10830648  0.09413455  0.84107184  1
  Tb  Tb1  1  0.44080031  0.76042759  0.96633452  1
  Tb  Tb2  1  0.10901503  0.09353857  0.46570283  1
  Tb  Tb3  1  0.44110930  0.75971842  0.34120354  1
  Tc  Tc4  1  0.94620478  0.76896048  0.15504993  1
  Tc  Tc5  1  0.60409731  0.59674180  0.65418988  1
  Tc  Tc6  1  0.77410078  0.42713422  0.40421468  1
  Tc  Tc7  1  0.60339564  0.08440927  0.65455562  1
  Tc  Tc8  1  0.43516558  0.25681245  0.15432125  1
  Tc  Tc9  1  0.94523597  0.25721514  0.15439634  1
  Tc  Tc10  1  0.11645418  0.59722584  0.65475112  1
  Tc  Tc11  1  0.77418953  0.42736834  0.90341401  1
