# generated using pymatgen
data_TbYTl2
_symmetry_space_group_name_H-M   'P 1'
_cell_length_a   5.37512970
_cell_length_b   5.39425850
_cell_length_c   5.36694908
_cell_angle_alpha   59.99959564
_cell_angle_beta   59.77187729
_cell_angle_gamma   60.09592438
_symmetry_Int_Tables_number   1
_chemical_formula_structural   TbYTl2
_chemical_formula_sum   'Tb1 Y1 Tl2'
_cell_volume   109.92343399
_cell_formula_units_Z   1
loop_
 _symmetry_equiv_pos_site_id
 _symmetry_equiv_pos_as_xyz
  1  'x, y, z'
loop_
 _atom_site_type_symbol
 _atom_site_label
 _atom_site_symmetry_multiplicity
 _atom_site_fract_x
 _atom_site_fract_y
 _atom_site_fract_z
 _atom_site_occupancy
  Tb  Tb0  1  0.61549109  0.19982259  0.40582004  1
  Y  Y1  1  0.11540361  0.70008653  0.90609884  1
  Tl  Tl2  1  0.86547214  0.44961756  0.65580094  1
  Tl  Tl3  1  0.36529407  0.94978422  0.15588941  1
