# generated using pymatgen
data_TbZrSb
_symmetry_space_group_name_H-M   'P 1'
_cell_length_a   4.28251123
_cell_length_b   4.32663679
_cell_length_c   8.75115585
_cell_angle_alpha   104.26926422
_cell_angle_beta   104.09861755
_cell_angle_gamma   90.22657013
_symmetry_Int_Tables_number   1
_chemical_formula_structural   TbZrSb
_chemical_formula_sum   'Tb2 Zr2 Sb2'
_cell_volume   152.05920059
_cell_formula_units_Z   2
loop_
 _symmetry_equiv_pos_site_id
 _symmetry_equiv_pos_as_xyz
  1  'x, y, z'
loop_
 _atom_site_type_symbol
 _atom_site_label
 _atom_site_symmetry_multiplicity
 _atom_site_fract_x
 _atom_site_fract_y
 _atom_site_fract_z
 _atom_site_occupancy
  Tb  Tb0  1  0.74619508  0.22170472  0.00618239  1
  Tb  Tb1  1  0.06122825  0.03387521  0.63709825  1
  Zr  Zr2  1  0.38394240  0.85791743  0.28478053  1
  Zr  Zr3  1  0.56211752  0.53392190  0.63721269  1
  Sb  Sb4  1  0.20166084  0.67793596  0.91724896  1
  Sb  Sb5  1  0.92833889  0.39947495  0.36776671  1
