# generated using pymatgen
data_Te2W3(SeS)2
_symmetry_space_group_name_H-M   'P 1'
_cell_length_a   3.42300129
_cell_length_b   3.31583309
_cell_length_c   28.29138756
_cell_angle_alpha   89.83746338
_cell_angle_beta   89.82318878
_cell_angle_gamma   119.09120178
_symmetry_Int_Tables_number   1
_chemical_formula_structural   Te2W3(SeS)2
_chemical_formula_sum   'Te2 W3 Se2 S2'
_cell_volume   280.59627511
_cell_formula_units_Z   1
loop_
 _symmetry_equiv_pos_site_id
 _symmetry_equiv_pos_as_xyz
  1  'x, y, z'
loop_
 _atom_site_type_symbol
 _atom_site_label
 _atom_site_symmetry_multiplicity
 _atom_site_fract_x
 _atom_site_fract_y
 _atom_site_fract_z
 _atom_site_occupancy
  Te  Te0  1  0.21430126  0.54748952  0.69635558  1
  Te  Te1  1  0.21433346  0.54703128  0.83833921  1
  W  W2  1  0.54736674  0.21440591  0.76622963  1
  W  W3  1  0.54788268  0.21381944  0.29089558  1
  W  W4  1  0.21432848  0.54743987  0.04677591  1
  Se  Se5  1  0.54805386  0.21501675  0.98724222  1
  Se  Se6  1  0.54800588  0.21460691  0.10732631  1
  S  S7  1  0.21452627  0.54701233  0.23566863  1
  S  S8  1  0.21418956  0.54676080  0.34493789  1
