# generated using pymatgen
data_Te6MoW3Se2
_symmetry_space_group_name_H-M   'P 1'
_cell_length_a   158.49871826
_cell_length_b   160.11375427
_cell_length_c   2271.97509766
_cell_angle_alpha   89.28309631
_cell_angle_beta   87.49661255
_cell_angle_gamma   120.52500916
_symmetry_Int_Tables_number   1
_chemical_formula_structural   Te6MoW3Se2
_chemical_formula_sum   'Te6 Mo1 W3 Se2'
_cell_volume   49579106.48833401
_cell_formula_units_Z   1
loop_
 _symmetry_equiv_pos_site_id
 _symmetry_equiv_pos_as_xyz
  1  'x, y, z'
loop_
 _atom_site_type_symbol
 _atom_site_label
 _atom_site_symmetry_multiplicity
 _atom_site_fract_x
 _atom_site_fract_y
 _atom_site_fract_z
 _atom_site_occupancy
  Te  Te0  1  0.87186813  0.98015940  0.71496522  1
  Te  Te1  1  0.32678339  0.82081103  0.69374597  1
  Te  Te2  1  0.49464455  0.84055495  0.23494999  1
  Te  Te3  1  0.67937601  0.20957294  0.21071059  1
  Te  Te4  1  0.67501014  0.05277742  0.79644680  1
  Te  Te5  1  0.94570208  0.58662671  0.19493692  1
  Mo  Mo6  1  0.21749941  0.43797171  0.50531822  1
  W  W7  1  0.10208286  0.32729933  0.10630261  1
  W  W8  1  0.97403640  0.40638554  0.07594332  1
  W  W9  1  0.92306876  0.33929628  0.24764772  1
  Se  Se10  1  0.87651646  0.82959509  0.11721687  1
  Se  Se11  1  0.22348468  0.59723437  0.09680048  1
