# generated using pymatgen
data_Te8Mo3W
_symmetry_space_group_name_H-M   'P 1'
_cell_length_a   3.57799459
_cell_length_b   7.85331631
_cell_length_c   13.08887863
_cell_angle_alpha   102.22272491
_cell_angle_beta   89.90874481
_cell_angle_gamma   89.88513947
_symmetry_Int_Tables_number   1
_chemical_formula_structural   Te8Mo3W
_chemical_formula_sum   'Te8 Mo3 W1'
_cell_volume   359.44755258
_cell_formula_units_Z   1
loop_
 _symmetry_equiv_pos_site_id
 _symmetry_equiv_pos_as_xyz
  1  'x, y, z'
loop_
 _atom_site_type_symbol
 _atom_site_label
 _atom_site_symmetry_multiplicity
 _atom_site_fract_x
 _atom_site_fract_y
 _atom_site_fract_z
 _atom_site_occupancy
  Te  Te0  1  0.16504548  0.38200474  0.99317908  1
  Te  Te1  1  0.16535851  0.88191789  0.22593634  1
  Te  Te2  1  0.66529512  0.41254884  0.25808567  1
  Te  Te3  1  0.66528219  0.58696985  0.74984080  1
  Te  Te4  1  0.66582513  0.85700732  0.49205843  1
  Te  Te5  1  0.16496062  0.28170082  0.47694379  1
  Te  Te6  1  0.66485322  0.97973818  0.00547838  1
  Te  Te7  1  0.16547735  0.07089534  0.75098878  1
  Mo  Mo8  1  0.66494852  0.11280141  0.32563260  1
  Mo  Mo9  1  0.16481839  0.17905286  0.15396747  1
  Mo  Mo10  1  0.16456397  0.73644680  0.63743341  1
  W  W11  1  0.66520762  0.53374517  0.53325933  1
