# generated using pymatgen
data_TeMo2Se2S
_symmetry_space_group_name_H-M   'P 1'
_cell_length_a   3.33598900
_cell_length_b   3.24076796
_cell_length_c   36.71330261
_cell_angle_alpha   89.83365631
_cell_angle_beta   89.90506744
_cell_angle_gamma   123.30998230
_symmetry_Int_Tables_number   1
_chemical_formula_structural   TeMo2Se2S
_chemical_formula_sum   'Te2 Mo4 Se4 S2'
_cell_volume   331.70144459
_cell_formula_units_Z   2
loop_
 _symmetry_equiv_pos_site_id
 _symmetry_equiv_pos_as_xyz
  1  'x, y, z'
loop_
 _atom_site_type_symbol
 _atom_site_label
 _atom_site_symmetry_multiplicity
 _atom_site_fract_x
 _atom_site_fract_y
 _atom_site_fract_z
 _atom_site_occupancy
  Te  Te0  1  0.58854336  0.78954661  0.35429075  1
  Te  Te1  1  0.92260122  0.45620304  0.26134092  1
  Mo  Mo2  1  0.92206389  0.45861971  0.77405190  1
  Mo  Mo3  1  0.58948648  0.79091156  0.20535859  1
  Mo  Mo4  1  0.58850771  0.79096448  0.58433986  1
  Mo  Mo5  1  0.92220032  0.45755494  0.40237892  1
  Se  Se6  1  0.92178595  0.45721576  0.17815645  1
  Se  Se7  1  0.58917999  0.79164147  0.72681105  1
  Se  Se8  1  0.92229229  0.45634976  0.10896748  1
  Se  Se9  1  0.58914632  0.79092246  0.81743151  1
  S  S10  1  0.92285579  0.45733526  0.55471402  1
  S  S11  1  0.58878964  0.79052949  0.44418785  1
