# generated using pymatgen
data_TeMoSe
_symmetry_space_group_name_H-M   'P 1'
_cell_length_a   3.46480346
_cell_length_b   6.32935047
_cell_length_c   6.96415424
_cell_angle_alpha   107.13964844
_cell_angle_beta   89.70080566
_cell_angle_gamma   90.05523682
_symmetry_Int_Tables_number   1
_chemical_formula_structural   TeMoSe
_chemical_formula_sum   'Te2 Mo2 Se2'
_cell_volume   145.93901583
_cell_formula_units_Z   2
loop_
 _symmetry_equiv_pos_site_id
 _symmetry_equiv_pos_as_xyz
  1  'x, y, z'
loop_
 _atom_site_type_symbol
 _atom_site_label
 _atom_site_symmetry_multiplicity
 _atom_site_fract_x
 _atom_site_fract_y
 _atom_site_fract_z
 _atom_site_occupancy
  Te  Te0  1  0.14653629  0.41208214  0.28608820  1
  Te  Te1  1  0.14686224  0.90534675  0.81237650  1
  Mo  Mo2  1  0.14711715  0.11409725  0.53354216  1
  Mo  Mo3  1  0.64740914  0.69687021  0.53323925  1
  Se  Se4  1  0.64618433  0.39974353  0.74474013  1
  Se  Se5  1  0.64663333  0.91921437  0.29160476  1
