# generated using pymatgen
data_Th2Tl
_symmetry_space_group_name_H-M   'P 1'
_cell_length_a   5.51146841
_cell_length_b   5.50912285
_cell_length_c   7.09200144
_cell_angle_alpha   89.97564697
_cell_angle_beta   90.13790131
_cell_angle_gamma   120.19063568
_symmetry_Int_Tables_number   1
_chemical_formula_structural   Th2Tl
_chemical_formula_sum   'Th4 Tl2'
_cell_volume   186.12740066
_cell_formula_units_Z   2
loop_
 _symmetry_equiv_pos_site_id
 _symmetry_equiv_pos_as_xyz
  1  'x, y, z'
loop_
 _atom_site_type_symbol
 _atom_site_label
 _atom_site_symmetry_multiplicity
 _atom_site_fract_x
 _atom_site_fract_y
 _atom_site_fract_z
 _atom_site_occupancy
  Th  Th0  1  0.12456014  0.75797522  0.11216585  1
  Th  Th1  1  0.12467390  0.75804615  0.61228096  1
  Th  Th2  1  0.79160964  0.09113771  0.30402988  1
  Th  Th3  1  0.79085565  0.09129036  0.80392098  1
  Tl  Tl4  1  0.45802665  0.42420015  0.96550202  1
  Tl  Tl5  1  0.45835969  0.42413509  0.46453372  1
