# generated using pymatgen
data_ThAlRh
_symmetry_space_group_name_H-M   'P 1'
_cell_length_a   4.15539360
_cell_length_b   7.19139481
_cell_length_c   7.20623398
_cell_angle_alpha   119.83468628
_cell_angle_beta   89.92108917
_cell_angle_gamma   89.96328735
_symmetry_Int_Tables_number   1
_chemical_formula_structural   ThAlRh
_chemical_formula_sum   'Th3 Al3 Rh3'
_cell_volume   186.80324449
_cell_formula_units_Z   3
loop_
 _symmetry_equiv_pos_site_id
 _symmetry_equiv_pos_as_xyz
  1  'x, y, z'
loop_
 _atom_site_type_symbol
 _atom_site_label
 _atom_site_symmetry_multiplicity
 _atom_site_fract_x
 _atom_site_fract_y
 _atom_site_fract_z
 _atom_site_occupancy
  Th  Th0  1  0.65782696  0.98052102  0.68499058  1
  Th  Th1  1  0.65830708  0.56092513  0.10387396  1
  Th  Th2  1  0.65815556  0.14566734  0.26691586  1
  Al  Al3  1  0.15797316  0.79615730  0.92020655  1
  Al  Al4  1  0.15818830  0.33147106  0.68599153  1
  Al  Al5  1  0.15824440  0.56237334  0.45305094  1
  Rh  Rh6  1  0.15801187  0.22927538  0.01987965  1
  Rh  Rh7  1  0.15827227  0.89646214  0.35322824  1
  Rh  Rh8  1  0.65853268  0.56317949  0.68617660  1
