# generated using pymatgen
data_ThAl2
_symmetry_space_group_name_H-M   'P 1'
_cell_length_a   3.94162011
_cell_length_b   4.57502460
_cell_length_c   4.57107353
_cell_angle_alpha   119.45719910
_cell_angle_beta   90.25463104
_cell_angle_gamma   90.34919739
_symmetry_Int_Tables_number   1
_chemical_formula_structural   ThAl2
_chemical_formula_sum   'Th1 Al2'
_cell_volume   71.76995056
_cell_formula_units_Z   1
loop_
 _symmetry_equiv_pos_site_id
 _symmetry_equiv_pos_as_xyz
  1  'x, y, z'
loop_
 _atom_site_type_symbol
 _atom_site_label
 _atom_site_symmetry_multiplicity
 _atom_site_fract_x
 _atom_site_fract_y
 _atom_site_fract_z
 _atom_site_occupancy
  Th  Th0  1  0.31365845  0.65467387  0.25309741  1
  Al  Al1  1  0.81253099  0.98896521  0.91925949  1
  Al  Al2  1  0.81386775  0.32225740  0.58695018  1
