# generated using pymatgen
data_ThCrS3
_symmetry_space_group_name_H-M   'P 1'
_cell_length_a   6.34859562
_cell_length_b   7.57993841
_cell_length_c   8.71349430
_cell_angle_alpha   90.21302032
_cell_angle_beta   89.38976288
_cell_angle_gamma   89.85092163
_symmetry_Int_Tables_number   1
_chemical_formula_structural   ThCrS3
_chemical_formula_sum   'Th4 Cr4 S12'
_cell_volume   419.28231415
_cell_formula_units_Z   4
loop_
 _symmetry_equiv_pos_site_id
 _symmetry_equiv_pos_as_xyz
  1  'x, y, z'
loop_
 _atom_site_type_symbol
 _atom_site_label
 _atom_site_symmetry_multiplicity
 _atom_site_fract_x
 _atom_site_fract_y
 _atom_site_fract_z
 _atom_site_occupancy
  Th  Th0  1  0.76936466  0.58933216  0.10004969  1
  Th  Th1  1  0.84323168  0.87667894  0.70450711  1
  Th  Th2  1  0.27155289  0.37623465  0.70876724  1
  Th  Th3  1  0.36228979  0.09080204  0.31332782  1
  Cr  Cr4  1  0.83636045  0.12264480  0.10155558  1
  Cr  Cr5  1  0.30148748  0.62171233  0.31281954  1
  Cr  Cr6  1  0.30313805  0.96411949  0.92493212  1
  Cr  Cr7  1  0.83582079  0.46351439  0.48411199  1
  S  S8  1  0.52919155  0.40028998  0.38773558  1
  S  S9  1  0.63121110  0.78795809  0.38832664  1
  S  S10  1  0.60699558  0.89990526  0.02387969  1
  S  S11  1  0.49214000  0.28682801  0.02358241  1
  S  S12  1  0.99213547  0.17023541  0.52337372  1
  S  S13  1  0.45844176  0.04708510  0.66946262  1
  S  S14  1  0.09987362  0.87191290  0.18122777  1
  S  S15  1  0.10768405  0.65200937  0.52463609  1
  S  S16  1  0.04421628  0.37255245  0.22191802  1
  S  S17  1  0.66144365  0.54736185  0.74405497  1
  S  S18  1  0.13089411  0.66663545  0.88831657  1
  S  S19  1  0.01780181  0.15094785  0.88644344  1
