# generated using pymatgen
data_ThH2
_symmetry_space_group_name_H-M   'P 1'
_cell_length_a   3.40215850
_cell_length_b   3.37937069
_cell_length_c   3.45682645
_cell_angle_alpha   89.43256378
_cell_angle_beta   89.54647064
_cell_angle_gamma   121.02805328
_symmetry_Int_Tables_number   1
_chemical_formula_structural   ThH2
_chemical_formula_sum   'Th1 H2'
_cell_volume   34.05134468
_cell_formula_units_Z   1
loop_
 _symmetry_equiv_pos_site_id
 _symmetry_equiv_pos_as_xyz
  1  'x, y, z'
loop_
 _atom_site_type_symbol
 _atom_site_label
 _atom_site_symmetry_multiplicity
 _atom_site_fract_x
 _atom_site_fract_y
 _atom_site_fract_z
 _atom_site_occupancy
  Th  Th0  1  0.85089183  0.09191909  0.02877829  1
  H  H1  1  0.18199666  0.75672638  0.52960032  1
  H  H2  1  0.51434284  0.42410290  0.52881968  1
