# generated using pymatgen
data_ThMn2
_symmetry_space_group_name_H-M   'P 1'
_cell_length_a   5.25592566
_cell_length_b   5.25741386
_cell_length_c   8.74897671
_cell_angle_alpha   87.94055176
_cell_angle_beta   87.56700897
_cell_angle_gamma   60.59688187
_symmetry_Int_Tables_number   1
_chemical_formula_structural   ThMn2
_chemical_formula_sum   'Th4 Mn8'
_cell_volume   210.39386994
_cell_formula_units_Z   4
loop_
 _symmetry_equiv_pos_site_id
 _symmetry_equiv_pos_as_xyz
  1  'x, y, z'
loop_
 _atom_site_type_symbol
 _atom_site_label
 _atom_site_symmetry_multiplicity
 _atom_site_fract_x
 _atom_site_fract_y
 _atom_site_fract_z
 _atom_site_occupancy
  Th  Th0  1  0.49326873  0.26980028  0.39925855  1
  Th  Th1  1  0.16058488  0.93818486  0.27867666  1
  Th  Th2  1  0.49445909  0.26923588  0.77740854  1
  Th  Th3  1  0.15874608  0.93750727  0.89650822  1
  Mn  Mn4  1  0.15384406  0.43971258  0.08662764  1
  Mn  Mn5  1  0.66065156  0.44058403  0.08642475  1
  Mn  Mn6  1  0.83035457  0.60145479  0.84045690  1
  Mn  Mn7  1  0.98647481  0.27945927  0.58759457  1
  Mn  Mn8  1  0.82892537  0.60354990  0.34080523  1
  Mn  Mn9  1  0.98315322  0.76116109  0.58821344  1
  Mn  Mn10  1  0.66401124  0.93000937  0.08653080  1
  Mn  Mn11  1  0.49189517  0.75965148  0.58721715  1
