# generated using pymatgen
data_ThPaTc2
_symmetry_space_group_name_H-M   'P 1'
_cell_length_a   4.93810797
_cell_length_b   4.93830442
_cell_length_c   4.94117355
_cell_angle_alpha   59.82267380
_cell_angle_beta   60.04628754
_cell_angle_gamma   59.92460632
_symmetry_Int_Tables_number   1
_chemical_formula_structural   ThPaTc2
_chemical_formula_sum   'Th1 Pa1 Tc2'
_cell_volume   85.06910353
_cell_formula_units_Z   1
loop_
 _symmetry_equiv_pos_site_id
 _symmetry_equiv_pos_as_xyz
  1  'x, y, z'
loop_
 _atom_site_type_symbol
 _atom_site_label
 _atom_site_symmetry_multiplicity
 _atom_site_fract_x
 _atom_site_fract_y
 _atom_site_fract_z
 _atom_site_occupancy
  Th  Th0  1  0.94355959  0.11308870  0.78607017  1
  Pa  Pa1  1  0.44348130  0.61313802  0.28591052  1
  Tc  Tc2  1  0.19327678  0.36334205  0.03548966  1
  Tc  Tc3  1  0.69339418  0.86321920  0.53533906  1
