# generated using pymatgen
data_ThRh2
_symmetry_space_group_name_H-M   'P 1'
_cell_length_a   5.43503237
_cell_length_b   5.42921782
_cell_length_c   5.43403339
_cell_angle_alpha   59.97723007
_cell_angle_beta   60.14283371
_cell_angle_gamma   59.78127289
_symmetry_Int_Tables_number   1
_chemical_formula_structural   ThRh2
_chemical_formula_sum   'Th2 Rh4'
_cell_volume   113.29585294
_cell_formula_units_Z   2
loop_
 _symmetry_equiv_pos_site_id
 _symmetry_equiv_pos_as_xyz
  1  'x, y, z'
loop_
 _atom_site_type_symbol
 _atom_site_label
 _atom_site_symmetry_multiplicity
 _atom_site_fract_x
 _atom_site_fract_y
 _atom_site_fract_z
 _atom_site_occupancy
  Th  Th0  1  0.35888648  0.58578181  0.10701632  1
  Th  Th1  1  0.60939622  0.83554894  0.35967103  1
  Rh  Rh2  1  0.98286474  0.21047238  0.73235917  1
  Rh  Rh3  1  0.98333812  0.71089643  0.73219907  1
  Rh  Rh4  1  0.98368514  0.21089169  0.23234786  1
  Rh  Rh5  1  0.48354918  0.21057364  0.73251235  1
