# generated using pymatgen
data_ThS2
_symmetry_space_group_name_H-M   'P 1'
_cell_length_a   4.17486477
_cell_length_b   7.41351986
_cell_length_c   9.19003010
_cell_angle_alpha   92.26246643
_cell_angle_beta   103.57491302
_cell_angle_gamma   90.04663086
_symmetry_Int_Tables_number   1
_chemical_formula_structural   ThS2
_chemical_formula_sum   'Th4 S8'
_cell_volume   276.25906414
_cell_formula_units_Z   4
loop_
 _symmetry_equiv_pos_site_id
 _symmetry_equiv_pos_as_xyz
  1  'x, y, z'
loop_
 _atom_site_type_symbol
 _atom_site_label
 _atom_site_symmetry_multiplicity
 _atom_site_fract_x
 _atom_site_fract_y
 _atom_site_fract_z
 _atom_site_occupancy
  Th  Th0  1  0.23339143  0.51025188  0.37876335  1
  Th  Th1  1  0.49580213  0.49719673  0.90943408  1
  Th  Th2  1  0.60473144  0.00748052  0.12915957  1
  Th  Th3  1  0.85393947  0.99718666  0.62450904  1
  S  S4  1  0.01778788  0.79226822  0.94883615  1
  S  S5  1  0.22152972  0.92422670  0.36180288  1
  S  S6  1  0.45111394  0.12328889  0.81912023  1
  S  S7  1  0.64188474  0.62952125  0.20180099  1
  S  S8  1  0.89108688  0.39455944  0.70225298  1
  S  S9  1  0.08057620  0.28760463  0.08404181  1
  S  S10  1  0.73455536  0.25054398  0.38945669  1
  S  S11  1  0.36330694  0.72171110  0.64819700  1
