# generated using pymatgen
data_ThScTc2
_symmetry_space_group_name_H-M   'P 1'
_cell_length_a   4.83017969
_cell_length_b   4.81946564
_cell_length_c   4.81258965
_cell_angle_alpha   59.57015610
_cell_angle_beta   59.87820816
_cell_angle_gamma   60.02130127
_symmetry_Int_Tables_number   1
_chemical_formula_structural   ThScTc2
_chemical_formula_sum   'Th1 Sc1 Tc2'
_cell_volume   78.89796632
_cell_formula_units_Z   1
loop_
 _symmetry_equiv_pos_site_id
 _symmetry_equiv_pos_as_xyz
  1  'x, y, z'
loop_
 _atom_site_type_symbol
 _atom_site_label
 _atom_site_symmetry_multiplicity
 _atom_site_fract_x
 _atom_site_fract_y
 _atom_site_fract_z
 _atom_site_occupancy
  Th  Th0  1  0.63643354  0.80815816  0.30442497  1
  Sc  Sc1  1  0.13661252  0.30827260  0.80426276  1
  Tc  Tc2  1  0.38667333  0.55837309  0.05423866  1
  Tc  Tc3  1  0.88645405  0.05850063  0.55416155  1
