# generated using pymatgen
data_ThUAl6
_symmetry_space_group_name_H-M   'P 1'
_cell_length_a   4.69433880
_cell_length_b   6.36517525
_cell_length_c   6.36339855
_cell_angle_alpha   119.70201111
_cell_angle_beta   90.23102570
_cell_angle_gamma   90.03613281
_symmetry_Int_Tables_number   1
_chemical_formula_structural   ThUAl6
_chemical_formula_sum   'Th1 U1 Al6'
_cell_volume   165.15635431
_cell_formula_units_Z   1
loop_
 _symmetry_equiv_pos_site_id
 _symmetry_equiv_pos_as_xyz
  1  'x, y, z'
loop_
 _atom_site_type_symbol
 _atom_site_label
 _atom_site_symmetry_multiplicity
 _atom_site_fract_x
 _atom_site_fract_y
 _atom_site_fract_z
 _atom_site_occupancy
  Th  Th0  1  0.54880750  0.73798525  0.24791306  1
  U  U1  1  0.04860966  0.06791345  0.91203934  1
  Al  Al2  1  0.04888003  0.55029678  0.87627792  1
  Al  Al3  1  0.04798716  0.11455843  0.43537208  1
  Al  Al4  1  0.54842645  0.24980164  0.26914293  1
  Al  Al5  1  0.54856759  0.70414239  0.73314637  1
  Al  Al6  1  0.54858869  0.25153220  0.73349792  1
  Al  Al7  1  0.04845363  0.54914236  0.43515885  1
