# generated using pymatgen
data_ThZr3
_symmetry_space_group_name_H-M   'P 1'
_cell_length_a   4.70804739
_cell_length_b   4.69480896
_cell_length_c   4.71238470
_cell_angle_alpha   89.70895386
_cell_angle_beta   89.72399139
_cell_angle_gamma   90.03548431
_symmetry_Int_Tables_number   1
_chemical_formula_structural   ThZr3
_chemical_formula_sum   'Th1 Zr3'
_cell_volume   104.15707025
_cell_formula_units_Z   1
loop_
 _symmetry_equiv_pos_site_id
 _symmetry_equiv_pos_as_xyz
  1  'x, y, z'
loop_
 _atom_site_type_symbol
 _atom_site_label
 _atom_site_symmetry_multiplicity
 _atom_site_fract_x
 _atom_site_fract_y
 _atom_site_fract_z
 _atom_site_occupancy
  Th  Th0  1  0.71733189  0.85383809  0.89090496  1
  Zr  Zr1  1  0.21726279  0.35411978  0.89059252  1
  Zr  Zr2  1  0.71738213  0.35368386  0.39121816  1
  Zr  Zr3  1  0.21663828  0.85367161  0.39033568  1
