# generated using pymatgen
data_Ti2S3
_symmetry_space_group_name_H-M   'P 1'
_cell_length_a   5.90189219
_cell_length_b   5.86662722
_cell_length_c   6.62558270
_cell_angle_alpha   63.19584656
_cell_angle_beta   63.43065643
_cell_angle_gamma   60.13396835
_symmetry_Int_Tables_number   1
_chemical_formula_structural   Ti2S3
_chemical_formula_sum   'Ti4 S6'
_cell_volume   170.05334864
_cell_formula_units_Z   2
loop_
 _symmetry_equiv_pos_site_id
 _symmetry_equiv_pos_as_xyz
  1  'x, y, z'
loop_
 _atom_site_type_symbol
 _atom_site_label
 _atom_site_symmetry_multiplicity
 _atom_site_fract_x
 _atom_site_fract_y
 _atom_site_fract_z
 _atom_site_occupancy
  Ti  Ti0  1  0.73495126  0.53319740  0.78148824  1
  Ti  Ti1  1  0.90073353  0.70060056  0.28004697  1
  Ti  Ti2  1  0.23420930  0.03292479  0.28143221  1
  Ti  Ti3  1  0.56459326  0.36464220  0.28583109  1
  S  S4  1  0.82040930  0.27711913  0.53469324  1
  S  S5  1  0.65151685  0.78283542  0.03015936  1
  S  S6  1  0.14996548  0.61717272  0.53355718  1
  S  S7  1  0.98750901  0.11894002  0.02908731  1
  S  S8  1  0.32049417  0.44559896  0.02879803  1
  S  S9  1  0.48495007  0.94558626  0.53234494  1
