# generated using pymatgen
data_Ti3Ga
_symmetry_space_group_name_H-M   'P 1'
_cell_length_a   4.04498672
_cell_length_b   4.03930092
_cell_length_c   4.04405642
_cell_angle_alpha   89.78328705
_cell_angle_beta   89.76760864
_cell_angle_gamma   90.12251282
_symmetry_Int_Tables_number   1
_chemical_formula_structural   Ti3Ga
_chemical_formula_sum   'Ti3 Ga1'
_cell_volume   66.07433918
_cell_formula_units_Z   1
loop_
 _symmetry_equiv_pos_site_id
 _symmetry_equiv_pos_as_xyz
  1  'x, y, z'
loop_
 _atom_site_type_symbol
 _atom_site_label
 _atom_site_symmetry_multiplicity
 _atom_site_fract_x
 _atom_site_fract_y
 _atom_site_fract_z
 _atom_site_occupancy
  Ti  Ti0  1  0.04285526  0.84979391  0.62331688  1
  Ti  Ti1  1  0.54313427  0.84975356  0.12380189  1
  Ti  Ti2  1  0.54325610  0.35002324  0.62341940  1
  Ga  Ga3  1  0.04310061  0.35036847  0.12334947  1
