# generated using pymatgen
data_Ti3Sn
_symmetry_space_group_name_H-M   'P 1'
_cell_length_a   4.75622559
_cell_length_b   5.91798830
_cell_length_c   5.88485146
_cell_angle_alpha   60.16828918
_cell_angle_beta   90.16909027
_cell_angle_gamma   89.99562073
_symmetry_Int_Tables_number   1
_chemical_formula_structural   Ti3Sn
_chemical_formula_sum   'Ti6 Sn2'
_cell_volume   143.69249406
_cell_formula_units_Z   2
loop_
 _symmetry_equiv_pos_site_id
 _symmetry_equiv_pos_as_xyz
  1  'x, y, z'
loop_
 _atom_site_type_symbol
 _atom_site_label
 _atom_site_symmetry_multiplicity
 _atom_site_fract_x
 _atom_site_fract_y
 _atom_site_fract_z
 _atom_site_occupancy
  Ti  Ti0  1  0.23514700  0.15649988  0.75983828  1
  Ti  Ti1  1  0.73530650  0.99203819  0.08999230  1
  Ti  Ti2  1  0.73516279  0.99211425  0.59595406  1
  Ti  Ti3  1  0.73536068  0.49795079  0.09015562  1
  Ti  Ti4  1  0.23511589  0.66396481  0.76025897  1
  Ti  Ti5  1  0.23509941  0.66380602  0.25207734  1
  Sn  Sn6  1  0.23578255  0.16174078  0.25642005  1
  Sn  Sn7  1  0.73537195  0.49460393  0.59209681  1
