# generated using pymatgen
data_Ti4FeSe8
_symmetry_space_group_name_H-M   'P 1'
_cell_length_a   7.16677904
_cell_length_b   7.22398567
_cell_length_c   7.23191452
_cell_angle_alpha   119.97648621
_cell_angle_beta   89.43003845
_cell_angle_gamma   120.52307892
_symmetry_Int_Tables_number   1
_chemical_formula_structural   Ti4FeSe8
_chemical_formula_sum   'Ti4 Fe1 Se8'
_cell_volume   264.05140201
_cell_formula_units_Z   1
loop_
 _symmetry_equiv_pos_site_id
 _symmetry_equiv_pos_as_xyz
  1  'x, y, z'
loop_
 _atom_site_type_symbol
 _atom_site_label
 _atom_site_symmetry_multiplicity
 _atom_site_fract_x
 _atom_site_fract_y
 _atom_site_fract_z
 _atom_site_occupancy
  Ti  Ti0  1  0.99896121  0.34060165  0.20690779  1
  Ti  Ti1  1  0.49947327  0.84091556  0.70711529  1
  Ti  Ti2  1  0.99872333  0.84012026  0.70673645  1
  Ti  Ti3  1  0.49893415  0.84057796  0.20678721  1
  Fe  Fe4  1  0.49881783  0.34037837  0.70704478  1
  Se  Se5  1  0.25140247  0.34140357  0.95604748  1
  Se  Se6  1  0.74582243  0.33973679  0.95345676  1
  Se  Se7  1  0.24713489  0.84042269  0.45442870  1
  Se  Se8  1  0.75196308  0.84137100  0.96149677  1
  Se  Se9  1  0.74956286  0.34124207  0.45979497  1
  Se  Se10  1  0.24751528  0.84085691  0.95966440  1
  Se  Se11  1  0.75200158  0.84046024  0.45475882  1
  Se  Se12  1  0.25321332  0.34151423  0.45685112  1
