# generated using pymatgen
data_Ti5Sb2Rh
_symmetry_space_group_name_H-M   'P 1'
_cell_length_a   5.38373232
_cell_length_b   7.92353106
_cell_length_c   7.93963909
_cell_angle_alpha   83.38782501
_cell_angle_beta   69.95497131
_cell_angle_gamma   69.70066071
_symmetry_Int_Tables_number   1
_chemical_formula_structural   Ti5Sb2Rh
_chemical_formula_sum   'Ti10 Sb4 Rh2'
_cell_volume   298.41024187
_cell_formula_units_Z   2
loop_
 _symmetry_equiv_pos_site_id
 _symmetry_equiv_pos_as_xyz
  1  'x, y, z'
loop_
 _atom_site_type_symbol
 _atom_site_label
 _atom_site_symmetry_multiplicity
 _atom_site_fract_x
 _atom_site_fract_y
 _atom_site_fract_z
 _atom_site_occupancy
  Ti  Ti0  1  0.46984708  0.54794532  0.07108767  1
  Ti  Ti1  1  0.96984118  0.40107372  0.22339086  1
  Ti  Ti2  1  0.33130354  0.39992002  0.49213573  1
  Ti  Ti3  1  0.68670964  0.54767138  0.63817006  1
  Ti  Ti4  1  0.18535542  0.97341245  0.21253456  1
  Ti  Ti5  1  0.50929540  0.18607454  0.85505503  1
  Ti  Ti6  1  0.04698937  0.82435590  0.63958895  1
  Ti  Ti7  1  0.54694426  0.97516680  0.49179083  1
  Ti  Ti8  1  0.00979113  0.18581375  0.85435122  1
  Ti  Ti9  1  0.83207363  0.82593620  0.07145438  1
  Sb  Sb10  1  0.92581707  0.18544945  0.52669430  1
  Sb  Sb11  1  0.42596981  0.85835409  0.85427767  1
  Sb  Sb12  1  0.09535726  0.51623946  0.85469425  1
  Sb  Sb13  1  0.59565008  0.18719867  0.18304026  1
  Rh  Rh14  1  0.51027524  0.68604159  0.35422587  1
  Rh  Rh15  1  0.00990207  0.68583798  0.35488322  1
