# generated using pymatgen
data_TiAlFeCo
_symmetry_space_group_name_H-M   'P 1'
_cell_length_a   4.15704632
_cell_length_b   4.16215706
_cell_length_c   4.13953400
_cell_angle_alpha   59.46846008
_cell_angle_beta   59.62031555
_cell_angle_gamma   59.92850876
_symmetry_Int_Tables_number   1
_chemical_formula_structural   TiAlFeCo
_chemical_formula_sum   'Ti1 Al1 Fe1 Co1'
_cell_volume   50.26676789
_cell_formula_units_Z   1
loop_
 _symmetry_equiv_pos_site_id
 _symmetry_equiv_pos_as_xyz
  1  'x, y, z'
loop_
 _atom_site_type_symbol
 _atom_site_label
 _atom_site_symmetry_multiplicity
 _atom_site_fract_x
 _atom_site_fract_y
 _atom_site_fract_z
 _atom_site_occupancy
  Ti  Ti0  1  0.35550857  0.28319761  0.48930359  1
  Al  Al1  1  0.85594791  0.78283703  0.98956674  1
  Fe  Fe2  1  0.60604590  0.53326708  0.73940122  1
  Co  Co3  1  0.10572194  0.03346324  0.23924711  1
