# generated using pymatgen
data_TiBr3
_symmetry_space_group_name_H-M   'P 1'
_cell_length_a   5.96211576
_cell_length_b   7.28676224
_cell_length_c   7.26559830
_cell_angle_alpha   60.38087463
_cell_angle_beta   90.34470367
_cell_angle_gamma   89.97254181
_symmetry_Int_Tables_number   1
_chemical_formula_structural   TiBr3
_chemical_formula_sum   'Ti2 Br6'
_cell_volume   274.39725956
_cell_formula_units_Z   2
loop_
 _symmetry_equiv_pos_site_id
 _symmetry_equiv_pos_as_xyz
  1  'x, y, z'
loop_
 _atom_site_type_symbol
 _atom_site_label
 _atom_site_symmetry_multiplicity
 _atom_site_fract_x
 _atom_site_fract_y
 _atom_site_fract_z
 _atom_site_occupancy
  Ti  Ti0  1  0.12003054  0.12558655  0.44542304  1
  Ti  Ti1  1  0.62007034  0.12507388  0.44463566  1
  Br  Br2  1  0.36911526  0.41290805  0.15578249  1
  Br  Br3  1  0.87038821  0.83238608  0.73472261  1
  Br  Br4  1  0.86957580  0.12456872  0.15569822  1
  Br  Br5  1  0.37048981  0.82994723  0.44357306  1
  Br  Br6  1  0.87040633  0.41494685  0.44541746  1
  Br  Br7  1  0.37057391  0.12717915  0.73294389  1
