# generated using pymatgen
data_TiFe2Ge
_symmetry_space_group_name_H-M   'P 1'
_cell_length_a   4.09901571
_cell_length_b   4.12530422
_cell_length_c   4.12309790
_cell_angle_alpha   59.80964279
_cell_angle_beta   59.85817337
_cell_angle_gamma   60.05293655
_symmetry_Int_Tables_number   1
_chemical_formula_structural   TiFe2Ge
_chemical_formula_sum   'Ti1 Fe2 Ge1'
_cell_volume   49.19509045
_cell_formula_units_Z   1
loop_
 _symmetry_equiv_pos_site_id
 _symmetry_equiv_pos_as_xyz
  1  'x, y, z'
loop_
 _atom_site_type_symbol
 _atom_site_label
 _atom_site_symmetry_multiplicity
 _atom_site_fract_x
 _atom_site_fract_y
 _atom_site_fract_z
 _atom_site_occupancy
  Ti  Ti0  1  0.55762106  0.57387823  0.62147760  1
  Fe  Fe1  1  0.30740768  0.32390499  0.37120575  1
  Fe  Fe2  1  0.80740947  0.82453978  0.87162125  1
  Ge  Ge3  1  0.05737368  0.07445210  0.12094954  1
