# generated using pymatgen
data_TiInRh2
_symmetry_space_group_name_H-M   'P 1'
_cell_length_a   4.47701073
_cell_length_b   4.48271179
_cell_length_c   4.46548796
_cell_angle_alpha   60.01800537
_cell_angle_beta   59.90042496
_cell_angle_gamma   60.23685455
_symmetry_Int_Tables_number   1
_chemical_formula_structural   TiInRh2
_chemical_formula_sum   'Ti1 In1 Rh2'
_cell_volume   63.44309719
_cell_formula_units_Z   1
loop_
 _symmetry_equiv_pos_site_id
 _symmetry_equiv_pos_as_xyz
  1  'x, y, z'
loop_
 _atom_site_type_symbol
 _atom_site_label
 _atom_site_symmetry_multiplicity
 _atom_site_fract_x
 _atom_site_fract_y
 _atom_site_fract_z
 _atom_site_occupancy
  Ti  Ti0  1  0.62958884  0.62159806  0.49164456  1
  In  In1  1  0.12964617  0.12125741  0.99213946  1
  Rh  Rh2  1  0.38013217  0.37116200  0.24256656  1
  Rh  Rh3  1  0.87973899  0.87120217  0.74218547  1
