# generated using pymatgen
data_TiRe2Mo
_symmetry_space_group_name_H-M   'P 1'
_cell_length_a   4.45104074
_cell_length_b   4.45426512
_cell_length_c   4.42773056
_cell_angle_alpha   59.72233200
_cell_angle_beta   59.58881760
_cell_angle_gamma   60.22798538
_symmetry_Int_Tables_number   1
_chemical_formula_structural   TiRe2Mo
_chemical_formula_sum   'Ti1 Re2 Mo1'
_cell_volume   61.85242901
_cell_formula_units_Z   1
loop_
 _symmetry_equiv_pos_site_id
 _symmetry_equiv_pos_as_xyz
  1  'x, y, z'
loop_
 _atom_site_type_symbol
 _atom_site_label
 _atom_site_symmetry_multiplicity
 _atom_site_fract_x
 _atom_site_fract_y
 _atom_site_fract_z
 _atom_site_occupancy
  Ti  Ti0  1  0.65888160  0.70283961  0.98382449  1
  Re  Re1  1  0.40885976  0.45310125  0.73362464  1
  Re  Re2  1  0.15845840  0.20300698  0.48412323  1
  Mo  Mo3  1  0.90884602  0.95356584  0.23414682  1
