# generated using pymatgen
data_TiSnO4
_symmetry_space_group_name_H-M   'P 1'
_cell_length_a   5.04565525
_cell_length_b   5.70654106
_cell_length_c   7.51466608
_cell_angle_alpha   93.93024445
_cell_angle_beta   90.17647552
_cell_angle_gamma   89.98558807
_symmetry_Int_Tables_number   1
_chemical_formula_structural   TiSnO4
_chemical_formula_sum   'Ti3 Sn3 O12'
_cell_volume   215.86169669
_cell_formula_units_Z   3
loop_
 _symmetry_equiv_pos_site_id
 _symmetry_equiv_pos_as_xyz
  1  'x, y, z'
loop_
 _atom_site_type_symbol
 _atom_site_label
 _atom_site_symmetry_multiplicity
 _atom_site_fract_x
 _atom_site_fract_y
 _atom_site_fract_z
 _atom_site_occupancy
  Ti  Ti0  1  0.18552001  0.93856138  0.63688439  1
  Ti  Ti1  1  0.68541604  0.10372321  0.29754752  1
  Ti  Ti2  1  0.68518090  0.77158332  0.97182852  1
  Sn  Sn3  1  0.68504524  0.43604341  0.63588804  1
  Sn  Sn4  1  0.18548560  0.26808697  0.97045243  1
  Sn  Sn5  1  0.18540747  0.60665625  0.30292839  1
  O  O6  1  0.52793175  0.07383814  0.06746344  1
  O  O7  1  0.34969348  0.23187660  0.71753389  1
  O  O8  1  0.35729522  0.92564523  0.39900640  1
  O  O9  1  0.49726820  0.76315188  0.73715442  1
  O  O10  1  0.37920174  0.59058082  0.06009142  1
  O  O11  1  0.86801583  0.10829351  0.52975929  1
  O  O12  1  0.99110031  0.29304093  0.21393871  1
  O  O13  1  0.84753788  0.80112910  0.20327058  1
  O  O14  1  0.02905552  0.63688403  0.54630387  1
  O  O15  1  0.00593333  0.94646925  0.86642063  1
  O  O16  1  0.85617065  0.47979140  0.88523990  1
  O  O17  1  0.51200795  0.39774221  0.38891587  1
