# generated using pymatgen
data_TiSnO4
_symmetry_space_group_name_H-M   'P 1'
_cell_length_a   3.17287207
_cell_length_b   4.74741507
_cell_length_c   4.76323414
_cell_angle_alpha   91.77455139
_cell_angle_beta   90.13007355
_cell_angle_gamma   89.95130157
_symmetry_Int_Tables_number   1
_chemical_formula_structural   TiSnO4
_chemical_formula_sum   'Ti1 Sn1 O4'
_cell_volume   71.71369697
_cell_formula_units_Z   1
loop_
 _symmetry_equiv_pos_site_id
 _symmetry_equiv_pos_as_xyz
  1  'x, y, z'
loop_
 _atom_site_type_symbol
 _atom_site_label
 _atom_site_symmetry_multiplicity
 _atom_site_fract_x
 _atom_site_fract_y
 _atom_site_fract_z
 _atom_site_occupancy
  Ti  Ti0  1  0.76226950  0.92696470  0.58008242  1
  Sn  Sn1  1  0.26216817  0.42679292  0.08053656  1
  O  O2  1  0.26244682  0.73552454  0.76823437  1
  O  O3  1  0.76260263  0.64042228  0.28914335  1
  O  O4  1  0.76140881  0.21738824  0.87194544  1
  O  O5  1  0.26206875  0.10776459  0.40329906  1
