# generated using pymatgen
data_Tl(SbO3)2
_symmetry_space_group_name_H-M   'P 1'
_cell_length_a   7.40887737
_cell_length_b   7.42971563
_cell_length_c   7.65148163
_cell_angle_alpha   61.81824112
_cell_angle_beta   61.59757614
_cell_angle_gamma   60.57663727
_symmetry_Int_Tables_number   1
_chemical_formula_structural   Tl(SbO3)2
_chemical_formula_sum   'Tl2 Sb4 O12'
_cell_volume   306.65002125
_cell_formula_units_Z   2
loop_
 _symmetry_equiv_pos_site_id
 _symmetry_equiv_pos_as_xyz
  1  'x, y, z'
loop_
 _atom_site_type_symbol
 _atom_site_label
 _atom_site_symmetry_multiplicity
 _atom_site_fract_x
 _atom_site_fract_y
 _atom_site_fract_z
 _atom_site_occupancy
  Tl  Tl0  1  0.99196756  0.13479885  0.75372416  1
  Tl  Tl1  1  0.49575204  0.62549502  0.75257230  1
  Sb  Sb2  1  0.49424094  0.63572580  0.25528505  1
  Sb  Sb3  1  0.99056101  0.13396448  0.27449021  1
  Sb  Sb4  1  0.98684126  0.63493657  0.27347180  1
  Sb  Sb5  1  0.50084573  0.12688863  0.24868050  1
  O  O6  1  0.35703155  0.55683249  0.55161095  1
  O  O7  1  0.92836237  0.55692106  0.55095291  1
  O  O8  1  0.92898834  0.96774095  0.17485999  1
  O  O9  1  0.92789853  0.46524686  0.17439473  1
  O  O10  1  0.59147519  0.22520414  0.95911765  1
  O  O11  1  0.61997646  0.27075934  0.34107164  1
  O  O12  1  0.19021232  0.22003439  0.37466118  1
  O  O13  1  0.61870617  0.70956373  0.94824940  1
  O  O14  1  0.32342440  0.97020268  0.17502603  1
  O  O15  1  0.30901092  0.57889283  0.17470190  1
  O  O16  1  0.93757629  0.96926641  0.55105680  1
  O  O17  1  0.61587751  0.79814142  0.34649330  1
