# generated using pymatgen
data_Tl3BSe3
_symmetry_space_group_name_H-M   'P 1'
_cell_length_a   5.89642668
_cell_length_b   6.95216227
_cell_length_c   10.36006832
_cell_angle_alpha   97.90041351
_cell_angle_beta   89.89123535
_cell_angle_gamma   93.01537323
_symmetry_Int_Tables_number   1
_chemical_formula_structural   Tl3BSe3
_chemical_formula_sum   'Tl6 B2 Se6'
_cell_volume   420.06992519
_cell_formula_units_Z   2
loop_
 _symmetry_equiv_pos_site_id
 _symmetry_equiv_pos_as_xyz
  1  'x, y, z'
loop_
 _atom_site_type_symbol
 _atom_site_label
 _atom_site_symmetry_multiplicity
 _atom_site_fract_x
 _atom_site_fract_y
 _atom_site_fract_z
 _atom_site_occupancy
  Tl  Tl0  1  0.90020072  0.51741558  0.18171085  1
  Tl  Tl1  1  0.91944307  0.18925171  0.44729468  1
  Tl  Tl2  1  0.93985862  0.14807352  0.86666167  1
  Tl  Tl3  1  0.42433819  0.81985956  0.39706424  1
  Tl  Tl4  1  0.44642136  0.84808391  0.01098220  1
  Tl  Tl5  1  0.40728882  0.44249964  0.68456930  1
  B  B6  1  0.26346090  0.23039828  0.18399039  1
  B  B7  1  0.77115321  0.77257848  0.70315826  1
  Se  Se8  1  0.49604177  0.94817859  0.70986223  1
  Se  Se9  1  0.91820103  0.70962721  0.52670443  1
  Se  Se10  1  0.41866899  0.33040029  0.34565917  1
  Se  Se11  1  0.41055071  0.33439931  0.02772927  1
  Se  Se12  1  0.91930223  0.65508640  0.84633017  1
  Se  Se13  1  0.99723703  0.00701466  0.16438676  1
