# generated using pymatgen
data_Tl4SnSe3
_symmetry_space_group_name_H-M   'P 1'
_cell_length_a   8.56108952
_cell_length_b   8.73256207
_cell_length_c   8.58340263
_cell_angle_alpha   61.62953568
_cell_angle_beta   89.71049500
_cell_angle_gamma   119.07132721
_symmetry_Int_Tables_number   1
_chemical_formula_structural   Tl4SnSe3
_chemical_formula_sum   'Tl8 Sn2 Se6'
_cell_volume   469.69310862
_cell_formula_units_Z   2
loop_
 _symmetry_equiv_pos_site_id
 _symmetry_equiv_pos_as_xyz
  1  'x, y, z'
loop_
 _atom_site_type_symbol
 _atom_site_label
 _atom_site_symmetry_multiplicity
 _atom_site_fract_x
 _atom_site_fract_y
 _atom_site_fract_z
 _atom_site_occupancy
  Tl  Tl0  1  0.68520367  0.27623054  0.56631422  1
  Tl  Tl1  1  0.39783546  0.98637277  0.33905664  1
  Tl  Tl2  1  0.19412506  0.98981905  0.83911836  1
  Tl  Tl3  1  0.50197196  0.59379786  0.54222256  1
  Tl  Tl4  1  0.19507203  0.59405035  0.22449040  1
  Tl  Tl5  1  0.89815885  0.98842102  0.53967011  1
  Tl  Tl6  1  0.20734201  0.28878981  0.04111981  1
  Tl  Tl7  1  0.69425774  0.97132802  0.02474887  1
  Sn  Sn8  1  0.00595658  0.59436721  0.72309089  1
  Sn  Sn9  1  0.76244438  0.59268302  0.14499292  1
  Se  Se10  1  0.70460713  0.59217542  0.87075037  1
  Se  Se11  1  0.36949244  0.30041018  0.37393591  1
  Se  Se12  1  0.83974671  0.29522318  0.18716128  1
  Se  Se13  1  0.02785418  0.30334145  0.70323813  1
  Se  Se14  1  0.37743819  0.77618796  0.77471423  1
  Se  Se15  1  0.95357198  0.77677822  0.31430861  1
