# generated using pymatgen
data_TlAsPd5
_symmetry_space_group_name_H-M   'P 1'
_cell_length_a   4.10548639
_cell_length_b   4.08607054
_cell_length_c   7.01011276
_cell_angle_alpha   89.84304810
_cell_angle_beta   89.89172363
_cell_angle_gamma   90.01532745
_symmetry_Int_Tables_number   1
_chemical_formula_structural   TlAsPd5
_chemical_formula_sum   'Tl1 As1 Pd5'
_cell_volume   117.59613807
_cell_formula_units_Z   1
loop_
 _symmetry_equiv_pos_site_id
 _symmetry_equiv_pos_as_xyz
  1  'x, y, z'
loop_
 _atom_site_type_symbol
 _atom_site_label
 _atom_site_symmetry_multiplicity
 _atom_site_fract_x
 _atom_site_fract_y
 _atom_site_fract_z
 _atom_site_occupancy
  Tl  Tl0  1  0.35241854  0.50307757  0.58330095  1
  As  As1  1  0.85233313  0.00284066  0.08464280  1
  Pd  Pd2  1  0.35266837  0.00277722  0.29131228  1
  Pd  Pd3  1  0.85275275  0.00286128  0.58413619  1
  Pd  Pd4  1  0.85261929  0.50285167  0.87810910  1
  Pd  Pd5  1  0.85265851  0.50312871  0.29076436  1
  Pd  Pd6  1  0.35231549  0.00281036  0.87810016  1
