# generated using pymatgen
data_TlCu4S3
_symmetry_space_group_name_H-M   'P 1'
_cell_length_a   3.92639065
_cell_length_b   3.93554759
_cell_length_c   10.44164467
_cell_angle_alpha   79.12849426
_cell_angle_beta   79.14656830
_cell_angle_gamma   60.06001282
_symmetry_Int_Tables_number   1
_chemical_formula_structural   TlCu4S3
_chemical_formula_sum   'Tl1 Cu4 S3'
_cell_volume   136.46464108
_cell_formula_units_Z   1
loop_
 _symmetry_equiv_pos_site_id
 _symmetry_equiv_pos_as_xyz
  1  'x, y, z'
loop_
 _atom_site_type_symbol
 _atom_site_label
 _atom_site_symmetry_multiplicity
 _atom_site_fract_x
 _atom_site_fract_y
 _atom_site_fract_z
 _atom_site_occupancy
  Tl  Tl0  1  0.05057864  0.30412707  0.45901433  1
  Cu  Cu1  1  0.57262528  0.82710242  0.89152908  1
  Cu  Cu2  1  0.29735374  0.55287218  0.71958601  1
  Cu  Cu3  1  0.18481266  0.44204876  0.04704707  1
  Cu  Cu4  1  0.80686343  0.05999205  0.18975106  1
  S  S5  1  0.87955868  0.13706693  0.96515650  1
  S  S6  1  0.64697737  0.90450883  0.66605473  1
  S  S7  1  0.45048311  0.70408410  0.25701952  1
