# generated using pymatgen
data_TlHg5Cl11
_symmetry_space_group_name_H-M   'P 1'
_cell_length_a   6.81507349
_cell_length_b   9.77011490
_cell_length_c   9.87480068
_cell_angle_alpha   105.08520508
_cell_angle_beta   106.46369934
_cell_angle_gamma   103.90684509
_symmetry_Int_Tables_number   1
_chemical_formula_structural   TlHg5Cl11
_chemical_formula_sum   'Tl1 Hg5 Cl11'
_cell_volume   572.71873750
_cell_formula_units_Z   1
loop_
 _symmetry_equiv_pos_site_id
 _symmetry_equiv_pos_as_xyz
  1  'x, y, z'
loop_
 _atom_site_type_symbol
 _atom_site_label
 _atom_site_symmetry_multiplicity
 _atom_site_fract_x
 _atom_site_fract_y
 _atom_site_fract_z
 _atom_site_occupancy
  Tl  Tl0  1  0.72226286  0.20084082  0.47971734  1
  Hg  Hg1  1  0.55898744  0.60992885  0.74664456  1
  Hg  Hg2  1  0.36739996  0.97308248  0.01091622  1
  Hg  Hg3  1  0.08501897  0.50093746  0.93802619  1
  Hg  Hg4  1  0.99573720  0.71094757  0.55725211  1
  Hg  Hg5  1  0.16587336  0.32286835  0.28496072  1
  Cl  Cl6  1  0.40910447  0.88199437  0.70501524  1
  Cl  Cl7  1  0.06753520  0.60575306  0.25972730  1
  Cl  Cl8  1  0.87140268  0.96420592  0.52084202  1
  Cl  Cl9  1  0.49676090  0.70180094  0.04565601  1
  Cl  Cl10  1  0.15529932  0.43526903  0.60983622  1
  Cl  Cl11  1  0.76032072  0.15236691  0.15578854  1
  Cl  Cl12  1  0.59887803  0.51448643  0.43375042  1
  Cl  Cl13  1  0.31187528  0.05887083  0.30508649  1
  Cl  Cl14  1  0.22382291  0.24431317  0.98092550  1
  Cl  Cl15  1  0.97020853  0.77848774  0.88336331  1
  Cl  Cl16  1  0.69678521  0.34742656  0.79072559  1
