# generated using pymatgen
data_TlSe
_symmetry_space_group_name_H-M   'P 1'
_cell_length_a   6.18239117
_cell_length_b   6.17889071
_cell_length_c   7.74640512
_cell_angle_alpha   113.83252716
_cell_angle_beta   113.61188507
_cell_angle_gamma   90.31996918
_symmetry_Int_Tables_number   1
_chemical_formula_structural   TlSe
_chemical_formula_sum   'Tl4 Se4'
_cell_volume   243.02208135
_cell_formula_units_Z   4
loop_
 _symmetry_equiv_pos_site_id
 _symmetry_equiv_pos_as_xyz
  1  'x, y, z'
loop_
 _atom_site_type_symbol
 _atom_site_label
 _atom_site_symmetry_multiplicity
 _atom_site_fract_x
 _atom_site_fract_y
 _atom_site_fract_z
 _atom_site_occupancy
  Tl  Tl0  1  0.01896289  0.80662555  0.35358089  1
  Tl  Tl1  1  0.26934791  0.55683202  0.85434800  1
  Tl  Tl2  1  0.51870376  0.30662239  0.35446846  1
  Tl  Tl3  1  0.76863784  0.05706387  0.85466915  1
  Se  Se4  1  0.26824719  0.05632775  0.85316741  1
  Se  Se5  1  0.51830256  0.80664349  0.35439366  1
  Se  Se6  1  0.76817811  0.55734783  0.85211712  1
  Se  Se7  1  0.01782285  0.30671510  0.35393190  1
