# generated using pymatgen
data_Tm(Co2B)6
_symmetry_space_group_name_H-M   'P 1'
_cell_length_a   5.88506556
_cell_length_b   5.88548470
_cell_length_c   5.86547327
_cell_angle_alpha   103.72120667
_cell_angle_beta   103.86270905
_cell_angle_gamma   104.12080383
_symmetry_Int_Tables_number   1
_chemical_formula_structural   Tm(Co2B)6
_chemical_formula_sum   'Tm1 Co12 B6'
_cell_volume   181.60673431
_cell_formula_units_Z   1
loop_
 _symmetry_equiv_pos_site_id
 _symmetry_equiv_pos_as_xyz
  1  'x, y, z'
loop_
 _atom_site_type_symbol
 _atom_site_label
 _atom_site_symmetry_multiplicity
 _atom_site_fract_x
 _atom_site_fract_y
 _atom_site_fract_z
 _atom_site_occupancy
  Tm  Tm0  1  0.04325593  0.51290679  0.93746471  1
  Co  Co1  1  0.59022999  0.06213830  0.74788100  1
  Co  Co2  1  0.54374886  0.38324827  0.06650015  1
  Co  Co3  1  0.17349780  0.38291264  0.43648961  1
  Co  Co4  1  0.59015882  0.33283302  0.48214146  1
  Co  Co5  1  0.49765071  0.97103256  0.11870718  1
  Co  Co6  1  0.49655440  0.69934702  0.38639313  1
  Co  Co7  1  0.91196227  0.01482503  0.06701282  1
  Co  Co8  1  0.54340589  0.64754099  0.80520838  1
  Co  Co9  1  0.17405859  0.01172857  0.80456144  1
  Co  Co10  1  0.91223001  0.64821064  0.43669158  1
  Co  Co11  1  0.23069462  0.96997577  0.38863215  1
  Co  Co12  1  0.85805523  0.05959247  0.48209202  1
  B  B13  1  0.81219918  0.28004634  0.25972399  1
  B  B14  1  0.36501276  0.28124258  0.70721340  1
  B  B15  1  0.27627546  0.74778003  0.61546963  1
  B  B16  1  0.81090146  0.83069330  0.70514578  1
  B  B17  1  0.27547121  0.19769438  0.17152560  1
  B  B18  1  0.72341442  0.74773318  0.17130302  1
