# generated using pymatgen
data_Tm(MnAl)6
_symmetry_space_group_name_H-M   'P 1'
_cell_length_a   5.09359789
_cell_length_b   6.62761688
_cell_length_c   6.65866041
_cell_angle_alpha   81.43804932
_cell_angle_beta   67.41362000
_cell_angle_gamma   67.26493835
_symmetry_Int_Tables_number   1
_chemical_formula_structural   Tm(MnAl)6
_chemical_formula_sum   'Tm1 Mn6 Al6'
_cell_volume   191.41918423
_cell_formula_units_Z   1
loop_
 _symmetry_equiv_pos_site_id
 _symmetry_equiv_pos_as_xyz
  1  'x, y, z'
loop_
 _atom_site_type_symbol
 _atom_site_label
 _atom_site_symmetry_multiplicity
 _atom_site_fract_x
 _atom_site_fract_y
 _atom_site_fract_z
 _atom_site_occupancy
  Tm  Tm0  1  0.04228685  0.92345691  0.33781311  1
  Mn  Mn1  1  0.30765367  0.15840524  0.57326245  1
  Mn  Mn2  1  0.54223031  0.92616910  0.83834511  1
  Mn  Mn3  1  0.77770209  0.69049096  0.10229912  1
  Mn  Mn4  1  0.04251991  0.42651266  0.33780545  1
  Mn  Mn5  1  0.04258423  0.92468244  0.83852208  1
  Mn  Mn6  1  0.54232305  0.42587453  0.33834359  1
  Al  Al7  1  0.04228211  0.26902843  0.99361956  1
  Al  Al8  1  0.38498110  0.58150429  0.99670696  1
  Al  Al9  1  0.54327488  0.13011836  0.13934858  1
  Al  Al10  1  0.04217617  0.57896960  0.68360603  1
  Al  Al11  1  0.54281503  0.72943455  0.53534019  1
  Al  Al12  1  0.70321727  0.26443836  0.67469931  1
