# generated using pymatgen
data_Tm(Ni2P)2
_symmetry_space_group_name_H-M   'P 1'
_cell_length_a   3.66737700
_cell_length_b   7.01908875
_cell_length_c   7.03775787
_cell_angle_alpha   89.92907715
_cell_angle_beta   89.91147614
_cell_angle_gamma   90.01499176
_symmetry_Int_Tables_number   1
_chemical_formula_structural   Tm(Ni2P)2
_chemical_formula_sum   'Tm2 Ni8 P4'
_cell_volume   181.16310058
_cell_formula_units_Z   2
loop_
 _symmetry_equiv_pos_site_id
 _symmetry_equiv_pos_as_xyz
  1  'x, y, z'
loop_
 _atom_site_type_symbol
 _atom_site_label
 _atom_site_symmetry_multiplicity
 _atom_site_fract_x
 _atom_site_fract_y
 _atom_site_fract_z
 _atom_site_occupancy
  Tm  Tm0  1  0.96746409  0.21754347  0.01990778  1
  Tm  Tm1  1  0.46740168  0.71782172  0.51799899  1
  Ni  Ni2  1  0.96765411  0.05887269  0.60488904  1
  Ni  Ni3  1  0.46788457  0.87941611  0.10466675  1
  Ni  Ni4  1  0.46755028  0.30700651  0.68198180  1
  Ni  Ni5  1  0.46784061  0.55856985  0.93145359  1
  Ni  Ni6  1  0.96776772  0.63384420  0.18199012  1
  Ni  Ni7  1  0.96765423  0.37988007  0.43209049  1
  Ni  Ni8  1  0.96763849  0.80474633  0.85528964  1
  Ni  Ni9  1  0.46767449  0.13298419  0.35472125  1
  P  P10  1  0.46753019  0.99887359  0.80112773  1
  P  P11  1  0.96768689  0.94009030  0.30066580  1
  P  P12  1  0.96756810  0.49900007  0.73759061  1
  P  P13  1  0.46719441  0.43859676  0.23655495  1
