# generated using pymatgen
data_Tm2CdCu2
_symmetry_space_group_name_H-M   'P 1'
_cell_length_a   3.66195440
_cell_length_b   7.50496864
_cell_length_c   7.50050640
_cell_angle_alpha   89.94798279
_cell_angle_beta   90.05294037
_cell_angle_gamma   90.05461121
_symmetry_Int_Tables_number   1
_chemical_formula_structural   Tm2CdCu2
_chemical_formula_sum   'Tm4 Cd2 Cu4'
_cell_volume   206.13504818
_cell_formula_units_Z   2
loop_
 _symmetry_equiv_pos_site_id
 _symmetry_equiv_pos_as_xyz
  1  'x, y, z'
loop_
 _atom_site_type_symbol
 _atom_site_label
 _atom_site_symmetry_multiplicity
 _atom_site_fract_x
 _atom_site_fract_y
 _atom_site_fract_z
 _atom_site_occupancy
  Tm  Tm0  1  0.11267211  0.63744599  0.34809986  1
  Tm  Tm1  1  0.11198639  0.48595172  0.84811807  1
  Tm  Tm2  1  0.11224283  0.98712963  0.69815189  1
  Tm  Tm3  1  0.11258794  0.13686785  0.19839494  1
  Cd  Cd4  1  0.61219925  0.31271607  0.52386111  1
  Cd  Cd5  1  0.61223561  0.81255817  0.02301745  1
  Cu  Cu6  1  0.61221695  0.19405949  0.90717661  1
  Cu  Cu7  1  0.61218542  0.69323879  0.64161497  1
  Cu  Cu8  1  0.61254537  0.43097541  0.14208032  1
  Cu  Cu9  1  0.61214489  0.93204194  0.40639734  1
