# generated using pymatgen
data_Tm2RuPt
_symmetry_space_group_name_H-M   'P 1'
_cell_length_a   4.80836964
_cell_length_b   4.80451584
_cell_length_c   4.80756474
_cell_angle_alpha   59.85885239
_cell_angle_beta   59.98350525
_cell_angle_gamma   60.16008759
_symmetry_Int_Tables_number   1
_chemical_formula_structural   Tm2RuPt
_chemical_formula_sum   'Tm2 Ru1 Pt1'
_cell_volume   78.53433655
_cell_formula_units_Z   1
loop_
 _symmetry_equiv_pos_site_id
 _symmetry_equiv_pos_as_xyz
  1  'x, y, z'
loop_
 _atom_site_type_symbol
 _atom_site_label
 _atom_site_symmetry_multiplicity
 _atom_site_fract_x
 _atom_site_fract_y
 _atom_site_fract_z
 _atom_site_occupancy
  Tm  Tm0  1  0.31202170  0.40524608  0.29959998  1
  Tm  Tm1  1  0.81233573  0.90486050  0.79933739  1
  Ru  Ru2  1  0.56201440  0.65525651  0.54981297  1
  Pt  Pt3  1  0.06214774  0.15557228  0.04988692  1
