# generated using pymatgen
data_Tm2SeO2
_symmetry_space_group_name_H-M   'P 1'
_cell_length_a   3.80149651
_cell_length_b   3.80082178
_cell_length_c   7.11925936
_cell_angle_alpha   89.87802887
_cell_angle_beta   90.08699799
_cell_angle_gamma   120.60794067
_symmetry_Int_Tables_number   1
_chemical_formula_structural   Tm2SeO2
_chemical_formula_sum   'Tm2 Se1 O2'
_cell_volume   88.53261338
_cell_formula_units_Z   1
loop_
 _symmetry_equiv_pos_site_id
 _symmetry_equiv_pos_as_xyz
  1  'x, y, z'
loop_
 _atom_site_type_symbol
 _atom_site_label
 _atom_site_symmetry_multiplicity
 _atom_site_fract_x
 _atom_site_fract_y
 _atom_site_fract_z
 _atom_site_occupancy
  Tm  Tm0  1  0.88468015  0.31714466  0.25281161  1
  Tm  Tm1  1  0.55170739  0.65053958  0.58852440  1
  Se  Se2  1  0.55114388  0.65053409  0.99474192  1
  O  O3  1  0.88388360  0.31748208  0.59924936  1
  O  O4  1  0.21762560  0.98374820  0.37348631  1
