# generated using pymatgen
data_Tm2ZnOs
_symmetry_space_group_name_H-M   'P 1'
_cell_length_a   4.81826973
_cell_length_b   4.82326221
_cell_length_c   4.82554722
_cell_angle_alpha   59.89802170
_cell_angle_beta   59.95167160
_cell_angle_gamma   59.92049789
_symmetry_Int_Tables_number   1
_chemical_formula_structural   Tm2ZnOs
_chemical_formula_sum   'Tm2 Zn1 Os1'
_cell_volume   79.16041592
_cell_formula_units_Z   1
loop_
 _symmetry_equiv_pos_site_id
 _symmetry_equiv_pos_as_xyz
  1  'x, y, z'
loop_
 _atom_site_type_symbol
 _atom_site_label
 _atom_site_symmetry_multiplicity
 _atom_site_fract_x
 _atom_site_fract_y
 _atom_site_fract_z
 _atom_site_occupancy
  Tm  Tm0  1  0.51573932  0.63239294  0.62955415  1
  Tm  Tm1  1  0.01539546  0.13223867  0.12973489  1
  Zn  Zn2  1  0.76555598  0.88187248  0.87984264  1
  Os  Os3  1  0.26587003  0.38217667  0.37974304  1
