# generated using pymatgen
data_Tm3Ga8Ag3
_symmetry_space_group_name_H-M   'P 1'
_cell_length_a   4.42137957
_cell_length_b   8.18634033
_cell_length_c   8.20281506
_cell_angle_alpha   73.85195160
_cell_angle_beta   74.33782959
_cell_angle_gamma   74.06063080
_symmetry_Int_Tables_number   1
_chemical_formula_structural   Tm3Ga8Ag3
_chemical_formula_sum   'Tm3 Ga8 Ag3'
_cell_volume   268.13071741
_cell_formula_units_Z   1
loop_
 _symmetry_equiv_pos_site_id
 _symmetry_equiv_pos_as_xyz
  1  'x, y, z'
loop_
 _atom_site_type_symbol
 _atom_site_label
 _atom_site_symmetry_multiplicity
 _atom_site_fract_x
 _atom_site_fract_y
 _atom_site_fract_z
 _atom_site_occupancy
  Tm  Tm0  1  0.32915708  0.32627627  0.23981053  1
  Tm  Tm1  1  0.33397469  0.93762356  0.60980493  1
  Tm  Tm2  1  0.76985902  0.68748355  0.98215646  1
  Ga  Ga3  1  0.60916495  0.13907455  0.86372042  1
  Ga  Ga4  1  0.12928636  0.69982713  0.26823598  1
  Ga  Ga5  1  0.54149067  0.92619365  0.20586754  1
  Ga  Ga6  1  0.44329107  0.51278615  0.81262535  1
  Ga  Ga7  1  0.92916209  0.03306275  0.32259196  1
  Ga  Ga8  1  0.95749152  0.69065624  0.60625792  1
  Ga  Ga9  1  0.95434487  0.30875468  0.00391097  1
  Ga  Ga10  1  0.73193491  0.22499453  0.52600324  1
  Ag  Ag11  1  0.60561520  0.56544083  0.43939948  1
  Ag  Ag12  1  0.09946053  0.34802371  0.67051810  1
  Ag  Ag13  1  0.12829363  0.96680897  0.99470890  1
