# generated using pymatgen
data_Tm4CdSe7
_symmetry_space_group_name_H-M   'P 1'
_cell_length_a   3.94439816
_cell_length_b   6.93378019
_cell_length_c   12.16170216
_cell_angle_alpha   89.92334747
_cell_angle_beta   89.90940094
_cell_angle_gamma   105.30792236
_symmetry_Int_Tables_number   1
_chemical_formula_structural   Tm4CdSe7
_chemical_formula_sum   'Tm4 Cd1 Se7'
_cell_volume   320.81566956
_cell_formula_units_Z   1
loop_
 _symmetry_equiv_pos_site_id
 _symmetry_equiv_pos_as_xyz
  1  'x, y, z'
loop_
 _atom_site_type_symbol
 _atom_site_label
 _atom_site_symmetry_multiplicity
 _atom_site_fract_x
 _atom_site_fract_y
 _atom_site_fract_z
 _atom_site_occupancy
  Tm  Tm0  1  0.43014002  0.51654595  0.54245281  1
  Tm  Tm1  1  0.56040436  0.77537948  0.96394908  1
  Tm  Tm2  1  0.82955039  0.30735677  0.82201129  1
  Tm  Tm3  1  0.70068371  0.05820414  0.38886282  1
  Cd  Cd4  1  0.98873973  0.63081002  0.25254443  1
  Se  Se5  1  0.79128551  0.23657839  0.59400731  1
  Se  Se6  1  0.92528301  0.50006783  0.02505606  1
  Se  Se7  1  0.34422114  0.34356460  0.32355416  1
  Se  Se8  1  0.46856225  0.59091896  0.76225817  1
  Se  Se9  1  0.07115105  0.79095650  0.47274280  1
  Se  Se10  1  0.63022333  0.90583235  0.17818908  1
  Se  Se11  1  0.19720654  0.04814090  0.89152843  1
