# generated using pymatgen
data_Tm5Tl3
_symmetry_space_group_name_H-M   'P 1'
_cell_length_a   5.67890406
_cell_length_b   9.62360668
_cell_length_c   9.66344261
_cell_angle_alpha   119.91608429
_cell_angle_beta   90.07616425
_cell_angle_gamma   89.96434021
_symmetry_Int_Tables_number   1
_chemical_formula_structural   Tm5Tl3
_chemical_formula_sum   'Tm10 Tl6'
_cell_volume   457.75292738
_cell_formula_units_Z   2
loop_
 _symmetry_equiv_pos_site_id
 _symmetry_equiv_pos_as_xyz
  1  'x, y, z'
loop_
 _atom_site_type_symbol
 _atom_site_label
 _atom_site_symmetry_multiplicity
 _atom_site_fract_x
 _atom_site_fract_y
 _atom_site_fract_z
 _atom_site_occupancy
  Tm  Tm0  1  0.06409959  0.30925739  0.41705534  1
  Tm  Tm1  1  0.56395662  0.80904830  0.91639769  1
  Tm  Tm2  1  0.56408364  0.43236148  0.67195714  1
  Tm  Tm3  1  0.06421421  0.80750799  0.43245378  1
  Tm  Tm4  1  0.06440125  0.55714166  0.92681831  1
  Tm  Tm5  1  0.56425178  0.05803886  0.43155703  1
  Tm  Tm6  1  0.56439561  0.30904472  0.93092036  1
  Tm  Tm7  1  0.56404793  0.55845886  0.41228077  1
  Tm  Tm8  1  0.06474182  0.93255723  0.17279498  1
  Tm  Tm9  1  0.06398848  0.05879421  0.91371179  1
  Tl  Tl10  1  0.56430823  0.93256128  0.67193556  1
  Tl  Tl11  1  0.06372379  0.43225384  0.17207585  1
  Tl  Tl12  1  0.56408453  0.68836343  0.17239149  1
  Tl  Tl13  1  0.06406036  0.18748613  0.67146170  1
  Tl  Tl14  1  0.06416936  0.67685914  0.67199433  1
  Tl  Tl15  1  0.56385356  0.17229931  0.17248338  1
