# generated using pymatgen
data_TmB4
_symmetry_space_group_name_H-M   'P 1'
_cell_length_a   5.24845886
_cell_length_b   5.26029491
_cell_length_c   7.44148779
_cell_angle_alpha   89.97404480
_cell_angle_beta   89.83038330
_cell_angle_gamma   89.98820496
_symmetry_Int_Tables_number   1
_chemical_formula_structural   TmB4
_chemical_formula_sum   'Tm4 B16'
_cell_volume   205.44695438
_cell_formula_units_Z   4
loop_
 _symmetry_equiv_pos_site_id
 _symmetry_equiv_pos_as_xyz
  1  'x, y, z'
loop_
 _atom_site_type_symbol
 _atom_site_label
 _atom_site_symmetry_multiplicity
 _atom_site_fract_x
 _atom_site_fract_y
 _atom_site_fract_z
 _atom_site_occupancy
  Tm  Tm0  1  0.46510714  0.92508310  0.88945252  1
  Tm  Tm1  1  0.96453381  0.42512092  0.89011574  1
  Tm  Tm2  1  0.96465027  0.42531279  0.39019209  1
  Tm  Tm3  1  0.46497855  0.92603278  0.39029938  1
  B  B4  1  0.61114126  0.27981532  0.13977513  1
  B  B5  1  0.32442415  0.55998766  0.13963844  1
  B  B6  1  0.60789829  0.56068581  0.64020491  1
  B  B7  1  0.82471412  0.06050351  0.64060408  1
  B  B8  1  0.10760269  0.06069924  0.14022465  1
  B  B9  1  0.82508624  0.78068334  0.14083001  1
  B  B10  1  0.60837090  0.27970010  0.64078557  1
  B  B11  1  0.82510722  0.78158748  0.64086902  1
  B  B12  1  0.82498288  0.06023963  0.13981216  1
  B  B13  1  0.32398739  0.28113866  0.64101642  1
  B  B14  1  0.60794067  0.56023151  0.14064267  1
  B  B15  1  0.32423508  0.55965525  0.64051270  1
  B  B16  1  0.10733521  0.78369385  0.14008471  1
  B  B17  1  0.32405818  0.28117788  0.14048322  1
  B  B18  1  0.10870576  0.06050535  0.64037412  1
  B  B19  1  0.11133155  0.77976346  0.64064801  1
