# generated using pymatgen
data_TmBiPt
_symmetry_space_group_name_H-M   'P 1'
_cell_length_a   4.72966194
_cell_length_b   4.72896099
_cell_length_c   4.72843266
_cell_angle_alpha   59.51814270
_cell_angle_beta   59.56331635
_cell_angle_gamma   59.68392944
_symmetry_Int_Tables_number   1
_chemical_formula_structural   TmBiPt
_chemical_formula_sum   'Tm1 Bi1 Pt1'
_cell_volume   74.08228653
_cell_formula_units_Z   1
loop_
 _symmetry_equiv_pos_site_id
 _symmetry_equiv_pos_as_xyz
  1  'x, y, z'
loop_
 _atom_site_type_symbol
 _atom_site_label
 _atom_site_symmetry_multiplicity
 _atom_site_fract_x
 _atom_site_fract_y
 _atom_site_fract_z
 _atom_site_occupancy
  Tm  Tm0  1  0.49551240  0.21780713  0.43703908  1
  Bi  Bi1  1  0.99484789  0.71688533  0.93672115  1
  Pt  Pt2  1  0.24604504  0.96721810  0.18715219  1
