# generated using pymatgen
data_TmBiPd
_symmetry_space_group_name_H-M   'P 1'
_cell_length_a   4.75259209
_cell_length_b   4.76250458
_cell_length_c   4.75658178
_cell_angle_alpha   59.67814255
_cell_angle_beta   59.72154617
_cell_angle_gamma   60.03362274
_symmetry_Int_Tables_number   1
_chemical_formula_structural   TmBiPd
_chemical_formula_sum   'Tm1 Bi1 Pd1'
_cell_volume   75.80008843
_cell_formula_units_Z   1
loop_
 _symmetry_equiv_pos_site_id
 _symmetry_equiv_pos_as_xyz
  1  'x, y, z'
loop_
 _atom_site_type_symbol
 _atom_site_label
 _atom_site_symmetry_multiplicity
 _atom_site_fract_x
 _atom_site_fract_y
 _atom_site_fract_z
 _atom_site_occupancy
  Tm  Tm0  1  0.80405772  0.96963233  0.78799689  1
  Bi  Bi1  1  0.30345693  0.46853694  0.28711855  1
  Pd  Pd2  1  0.55378491  0.71939975  0.53792810  1
