# generated using pymatgen
data_TmCdPd2
_symmetry_space_group_name_H-M   'P 1'
_cell_length_a   4.74455929
_cell_length_b   4.75700235
_cell_length_c   4.74730015
_cell_angle_alpha   59.79080582
_cell_angle_beta   59.85737228
_cell_angle_gamma   60.14860916
_symmetry_Int_Tables_number   1
_chemical_formula_structural   TmCdPd2
_chemical_formula_sum   'Tm1 Cd1 Pd2'
_cell_volume   75.64557703
_cell_formula_units_Z   1
loop_
 _symmetry_equiv_pos_site_id
 _symmetry_equiv_pos_as_xyz
  1  'x, y, z'
loop_
 _atom_site_type_symbol
 _atom_site_label
 _atom_site_symmetry_multiplicity
 _atom_site_fract_x
 _atom_site_fract_y
 _atom_site_fract_z
 _atom_site_occupancy
  Tm  Tm0  1  0.21984988  0.24242952  0.52283370  1
  Cd  Cd1  1  0.72005689  0.74275792  0.02279312  1
  Pd  Pd2  1  0.46973008  0.49236161  0.77293378  1
  Pd  Pd3  1  0.97001398  0.99238616  0.27285755  1
