# generated using pymatgen
data_TmGa3Ru
_symmetry_space_group_name_H-M   'P 1'
_cell_length_a   6.43229198
_cell_length_b   6.43626451
_cell_length_c   6.44122267
_cell_angle_alpha   90.00910187
_cell_angle_beta   90.07255554
_cell_angle_gamma   90.16214752
_symmetry_Int_Tables_number   1
_chemical_formula_structural   TmGa3Ru
_chemical_formula_sum   'Tm3 Ga9 Ru3'
_cell_volume   266.66489944
_cell_formula_units_Z   3
loop_
 _symmetry_equiv_pos_site_id
 _symmetry_equiv_pos_as_xyz
  1  'x, y, z'
loop_
 _atom_site_type_symbol
 _atom_site_label
 _atom_site_symmetry_multiplicity
 _atom_site_fract_x
 _atom_site_fract_y
 _atom_site_fract_z
 _atom_site_occupancy
  Tm  Tm0  1  0.17012747  0.49184611  0.30393550  1
  Tm  Tm1  1  0.67013532  0.49205139  0.80395132  1
  Tm  Tm2  1  0.66987234  0.99263561  0.30412832  1
  Ga  Ga3  1  0.92761278  0.74308187  0.05387624  1
  Ga  Ga4  1  0.41629955  0.24116595  0.55467796  1
  Ga  Ga5  1  0.92549926  0.24071342  0.55488360  1
  Ga  Ga6  1  0.17059150  0.99352866  0.80444944  1
  Ga  Ga7  1  0.41104969  0.74325722  0.05375963  1
  Ga  Ga8  1  0.40617582  0.74268275  0.55499858  1
  Ga  Ga9  1  0.92983705  0.24143611  0.05342748  1
  Ga  Ga10  1  0.92909545  0.74405909  0.55433327  1
  Ga  Ga11  1  0.40877527  0.24234450  0.05400920  1
  Ru  Ru12  1  0.16989295  0.99252343  0.30420965  1
  Ru  Ru13  1  0.66935116  0.49190950  0.30451089  1
  Ru  Ru14  1  0.16987157  0.49216348  0.80485791  1
