# generated using pymatgen
data_TmInCu4
_symmetry_space_group_name_H-M   'P 1'
_cell_length_a   5.09673166
_cell_length_b   5.07611370
_cell_length_c   5.07252502
_cell_angle_alpha   59.91664124
_cell_angle_beta   59.91802979
_cell_angle_gamma   59.84238815
_symmetry_Int_Tables_number   1
_chemical_formula_structural   TmInCu4
_chemical_formula_sum   'Tm1 In1 Cu4'
_cell_volume   92.56991201
_cell_formula_units_Z   1
loop_
 _symmetry_equiv_pos_site_id
 _symmetry_equiv_pos_as_xyz
  1  'x, y, z'
loop_
 _atom_site_type_symbol
 _atom_site_label
 _atom_site_symmetry_multiplicity
 _atom_site_fract_x
 _atom_site_fract_y
 _atom_site_fract_z
 _atom_site_occupancy
  Tm  Tm0  1  0.44096556  0.63341707  0.73471820  1
  In  In1  1  0.68990737  0.88351297  0.98647541  1
  Cu  Cu2  1  0.06518006  0.25753170  0.86077005  1
  Cu  Cu3  1  0.06521790  0.75972062  0.35971716  1
  Cu  Cu4  1  0.56460947  0.25787199  0.35955203  1
  Cu  Cu5  1  0.06533159  0.25842708  0.36002421  1
