# generated using pymatgen
data_TmMnGe
_symmetry_space_group_name_H-M   'P 1'
_cell_length_a   4.07558346
_cell_length_b   6.91628456
_cell_length_c   6.92743874
_cell_angle_alpha   120.11373901
_cell_angle_beta   89.95883942
_cell_angle_gamma   90.00769043
_symmetry_Int_Tables_number   1
_chemical_formula_structural   TmMnGe
_chemical_formula_sum   'Tm3 Mn3 Ge3'
_cell_volume   168.91450771
_cell_formula_units_Z   3
loop_
 _symmetry_equiv_pos_site_id
 _symmetry_equiv_pos_as_xyz
  1  'x, y, z'
loop_
 _atom_site_type_symbol
 _atom_site_label
 _atom_site_symmetry_multiplicity
 _atom_site_fract_x
 _atom_site_fract_y
 _atom_site_fract_z
 _atom_site_occupancy
  Tm  Tm0  1  0.77403963  0.10435884  0.55179501  1
  Tm  Tm1  1  0.77359772  0.68439955  0.96750522  1
  Tm  Tm2  1  0.77431166  0.26586577  0.13592280  1
  Mn  Mn3  1  0.27354467  0.45412043  0.55183285  1
  Mn  Mn4  1  0.27388999  0.91686100  0.78046948  1
  Mn  Mn5  1  0.27331224  0.68463087  0.32097867  1
  Ge  Ge6  1  0.27435285  0.35294214  0.88682324  1
  Ge  Ge7  1  0.27429396  0.01963110  0.22071800  1
  Ge  Ge8  1  0.77419901  0.68583941  0.55301726  1
