# generated using pymatgen
data_TmPaRu2
_symmetry_space_group_name_H-M   'P 1'
_cell_length_a   4.80119658
_cell_length_b   4.79146004
_cell_length_c   4.79838514
_cell_angle_alpha   59.92730713
_cell_angle_beta   59.83959961
_cell_angle_gamma   59.99594879
_symmetry_Int_Tables_number   1
_chemical_formula_structural   TmPaRu2
_chemical_formula_sum   'Tm1 Pa1 Ru2'
_cell_volume   77.91416112
_cell_formula_units_Z   1
loop_
 _symmetry_equiv_pos_site_id
 _symmetry_equiv_pos_as_xyz
  1  'x, y, z'
loop_
 _atom_site_type_symbol
 _atom_site_label
 _atom_site_symmetry_multiplicity
 _atom_site_fract_x
 _atom_site_fract_y
 _atom_site_fract_z
 _atom_site_occupancy
  Tm  Tm0  1  0.64317816  0.31860840  0.39336088  1
  Pa  Pa1  1  0.14288589  0.81863177  0.89251202  1
  Ru  Ru2  1  0.39335099  0.06858353  0.14299920  1
  Ru  Ru3  1  0.89349431  0.56888413  0.64305609  1
