# generated using pymatgen
data_U2(PdRh)3
_symmetry_space_group_name_H-M   'P 1'
_cell_length_a   4.75131369
_cell_length_b   5.73690987
_cell_length_c   5.75368023
_cell_angle_alpha   120.17642975
_cell_angle_beta   90.06221771
_cell_angle_gamma   90.04176331
_symmetry_Int_Tables_number   1
_chemical_formula_structural   U2(PdRh)3
_chemical_formula_sum   'U2 Pd3 Rh3'
_cell_volume   135.57902557
_cell_formula_units_Z   1
loop_
 _symmetry_equiv_pos_site_id
 _symmetry_equiv_pos_as_xyz
  1  'x, y, z'
loop_
 _atom_site_type_symbol
 _atom_site_label
 _atom_site_symmetry_multiplicity
 _atom_site_fract_x
 _atom_site_fract_y
 _atom_site_fract_z
 _atom_site_occupancy
  U  U0  1  0.10373708  0.44215763  0.13906403  1
  U  U1  1  0.60379219  0.10940526  0.47287184  1
  Pd  Pd2  1  0.60362500  0.61257672  0.47907999  1
  Pd  Pd3  1  0.60320860  0.10101487  0.97058040  1
  Pd  Pd4  1  0.60335219  0.61141574  0.97125822  1
  Rh  Rh5  1  0.10328431  0.93995279  0.13646932  1
  Rh  Rh6  1  0.10276692  0.94069433  0.64008218  1
  Rh  Rh7  1  0.10355593  0.44526055  0.64226502  1
