# generated using pymatgen
data_U2FeS5
_symmetry_space_group_name_H-M   'P 1'
_cell_length_a   6.22384167
_cell_length_b   7.23040342
_cell_length_c   7.22624063
_cell_angle_alpha   103.06742096
_cell_angle_beta   98.52810669
_cell_angle_gamma   90.01766205
_symmetry_Int_Tables_number   1
_chemical_formula_structural   U2FeS5
_chemical_formula_sum   'U4 Fe2 S10'
_cell_volume   313.07068617
_cell_formula_units_Z   2
loop_
 _symmetry_equiv_pos_site_id
 _symmetry_equiv_pos_as_xyz
  1  'x, y, z'
loop_
 _atom_site_type_symbol
 _atom_site_label
 _atom_site_symmetry_multiplicity
 _atom_site_fract_x
 _atom_site_fract_y
 _atom_site_fract_z
 _atom_site_occupancy
  U  U0  1  0.80871558  0.74252522  0.34206009  1
  U  U1  1  0.36338952  0.85450584  0.79580599  1
  U  U2  1  0.87001848  0.44476596  0.78447717  1
  U  U3  1  0.30222449  0.16341646  0.36921448  1
  Fe  Fe4  1  0.86651003  0.05626144  0.92315573  1
  Fe  Fe5  1  0.31356576  0.55868572  0.24033986  1
  S  S6  1  0.14846662  0.53025633  0.52916259  1
  S  S7  1  0.02072906  0.07308181  0.62524384  1
  S  S8  1  0.08329906  0.85785717  0.08632803  1
  S  S9  1  0.50631058  0.57306343  0.00370443  1
  S  S10  1  0.39223921  0.82411635  0.41956243  1
  S  S11  1  0.62808049  0.42010912  0.40121445  1
  S  S12  1  0.76880693  0.76500970  0.73565090  1
  S  S13  1  0.56122458  0.18518716  0.74550897  1
  S  S14  1  0.62333316  0.02237047  0.13678949  1
  S  S15  1  0.07590459  0.32567182  0.08748894  1
