# generated using pymatgen
data_U2PN2
_symmetry_space_group_name_H-M   'P 1'
_cell_length_a   3.87764335
_cell_length_b   3.87670779
_cell_length_c   6.33020020
_cell_angle_alpha   89.87165070
_cell_angle_beta   89.81992340
_cell_angle_gamma   120.19542694
_symmetry_Int_Tables_number   1
_chemical_formula_structural   U2PN2
_chemical_formula_sum   'U2 P1 N2'
_cell_volume   82.24585296
_cell_formula_units_Z   1
loop_
 _symmetry_equiv_pos_site_id
 _symmetry_equiv_pos_as_xyz
  1  'x, y, z'
loop_
 _atom_site_type_symbol
 _atom_site_label
 _atom_site_symmetry_multiplicity
 _atom_site_fract_x
 _atom_site_fract_y
 _atom_site_fract_z
 _atom_site_occupancy
  U  U0  1  0.18640447  0.16271931  0.46909791  1
  U  U1  1  0.52009857  0.82903963  0.92180681  1
  P  P2  1  0.85303611  0.49562064  0.19372244  1
  N  N3  1  0.52005732  0.82979000  0.55605167  1
  N  N4  1  0.18667309  0.16282381  0.82277149  1
