# generated using pymatgen
data_U2Re2C3
_symmetry_space_group_name_H-M   'P 1'
_cell_length_a   3.26129675
_cell_length_b   5.50620556
_cell_length_c   6.02801704
_cell_angle_alpha   116.31581879
_cell_angle_beta   106.04729462
_cell_angle_gamma   89.79959869
_symmetry_Int_Tables_number   1
_chemical_formula_structural   U2Re2C3
_chemical_formula_sum   'U2 Re2 C3'
_cell_volume   92.35341395
_cell_formula_units_Z   1
loop_
 _symmetry_equiv_pos_site_id
 _symmetry_equiv_pos_as_xyz
  1  'x, y, z'
loop_
 _atom_site_type_symbol
 _atom_site_label
 _atom_site_symmetry_multiplicity
 _atom_site_fract_x
 _atom_site_fract_y
 _atom_site_fract_z
 _atom_site_occupancy
  U  U0  1  0.29237521  0.43838790  0.38194284  1
  U  U1  1  0.00960672  0.87720019  0.81809008  1
  Re  Re2  1  0.53805137  0.39869475  0.88763267  1
  Re  Re3  1  0.75391412  0.92078322  0.30717146  1
  C  C4  1  0.14813279  0.65419543  0.10595898  1
  C  C5  1  0.64738154  0.15070702  0.09738198  1
  C  C6  1  0.92151177  0.32845902  0.64374971  1
