# generated using pymatgen
data_U4TeSe7
_symmetry_space_group_name_H-M   'P 1'
_cell_length_a   4.16340637
_cell_length_b   7.67663240
_cell_length_c   9.04370975
_cell_angle_alpha   90.06118774
_cell_angle_beta   89.84080505
_cell_angle_gamma   89.96756744
_symmetry_Int_Tables_number   1
_chemical_formula_structural   U4TeSe7
_chemical_formula_sum   'U4 Te1 Se7'
_cell_volume   289.04413996
_cell_formula_units_Z   1
loop_
 _symmetry_equiv_pos_site_id
 _symmetry_equiv_pos_as_xyz
  1  'x, y, z'
loop_
 _atom_site_type_symbol
 _atom_site_label
 _atom_site_symmetry_multiplicity
 _atom_site_fract_x
 _atom_site_fract_y
 _atom_site_fract_z
 _atom_site_occupancy
  U  U0  1  0.07531506  0.15029180  0.39700744  1
  U  U1  1  0.57519042  0.65248442  0.65233403  1
  U  U2  1  0.57499355  0.15306050  0.87568361  1
  U  U3  1  0.07571509  0.63174719  0.15241314  1
  Te  Te4  1  0.57505810  0.93380576  0.18552470  1
  Se  Se5  1  0.07545472  0.86001778  0.85487360  1
  Se  Se6  1  0.07491881  0.24968034  0.08140178  1
  Se  Se7  1  0.57458317  0.53325856  0.95184118  1
  Se  Se8  1  0.57510281  0.43199128  0.35562909  1
  Se  Se9  1  0.07523361  0.36026010  0.68516678  1
  Se  Se10  1  0.07518072  0.75014728  0.45210120  1
  Se  Se11  1  0.57465333  0.03380721  0.58120382  1
