# generated using pymatgen
data_UCo4Sn
_symmetry_space_group_name_H-M   'P 1'
_cell_length_a   4.95172930
_cell_length_b   4.93702412
_cell_length_c   4.93433380
_cell_angle_alpha   59.85537720
_cell_angle_beta   60.01149368
_cell_angle_gamma   59.73163223
_symmetry_Int_Tables_number   1
_chemical_formula_structural   UCo4Sn
_chemical_formula_sum   'U1 Co4 Sn1'
_cell_volume   85.03731654
_cell_formula_units_Z   1
loop_
 _symmetry_equiv_pos_site_id
 _symmetry_equiv_pos_as_xyz
  1  'x, y, z'
loop_
 _atom_site_type_symbol
 _atom_site_label
 _atom_site_symmetry_multiplicity
 _atom_site_fract_x
 _atom_site_fract_y
 _atom_site_fract_z
 _atom_site_occupancy
  U  U0  1  0.97859734  0.01301007  0.23183605  1
  Co  Co1  1  0.85391337  0.38626203  0.60300624  1
  Co  Co2  1  0.35367945  0.88627392  0.60340250  1
  Co  Co3  1  0.35387763  0.38595888  0.60312176  1
  Co  Co4  1  0.35380167  0.38666350  0.10373548  1
  Sn  Sn5  1  0.72966635  0.76152831  0.97938347  1
