# generated using pymatgen
data_UCuGe
_symmetry_space_group_name_H-M   'P 1'
_cell_length_a   4.38273668
_cell_length_b   4.35382271
_cell_length_c   4.35816288
_cell_angle_alpha   59.27651215
_cell_angle_beta   59.55835724
_cell_angle_gamma   60.00303268
_symmetry_Int_Tables_number   1
_chemical_formula_structural   UCuGe
_chemical_formula_sum   'U1 Cu1 Ge1'
_cell_volume   58.28117141
_cell_formula_units_Z   1
loop_
 _symmetry_equiv_pos_site_id
 _symmetry_equiv_pos_as_xyz
  1  'x, y, z'
loop_
 _atom_site_type_symbol
 _atom_site_label
 _atom_site_symmetry_multiplicity
 _atom_site_fract_x
 _atom_site_fract_y
 _atom_site_fract_z
 _atom_site_occupancy
  U  U0  1  0.23617715  0.84125960  0.97193491  1
  Cu  Cu1  1  0.98645413  0.59097022  0.72183436  1
  Ge  Ge2  1  0.73612541  0.34080452  0.47115794  1
