# generated using pymatgen
data_UFeSi2
_symmetry_space_group_name_H-M   'P 1'
_cell_length_a   3.98752522
_cell_length_b   4.02320147
_cell_length_c   8.21870708
_cell_angle_alpha   104.02125549
_cell_angle_beta   90.33818817
_cell_angle_gamma   90.18080139
_symmetry_Int_Tables_number   1
_chemical_formula_structural   UFeSi2
_chemical_formula_sum   'U2 Fe2 Si4'
_cell_volume   127.91757766
_cell_formula_units_Z   2
loop_
 _symmetry_equiv_pos_site_id
 _symmetry_equiv_pos_as_xyz
  1  'x, y, z'
loop_
 _atom_site_type_symbol
 _atom_site_label
 _atom_site_symmetry_multiplicity
 _atom_site_fract_x
 _atom_site_fract_y
 _atom_site_fract_z
 _atom_site_occupancy
  U  U0  1  0.92404819  0.90719426  0.31628183  1
  U  U1  1  0.42403299  0.69211912  0.89242601  1
  Fe  Fe2  1  0.92375875  0.11747234  0.73668933  1
  Fe  Fe3  1  0.42407870  0.48021775  0.46620977  1
  Si  Si4  1  0.42390472  0.34140846  0.18750064  1
  Si  Si5  1  0.92396539  0.25855827  0.02041458  1
  Si  Si6  1  0.42367801  0.04917574  0.60387611  1
  Si  Si7  1  0.92370665  0.55327976  0.60504353  1
