# generated using pymatgen
data_US3
_symmetry_space_group_name_H-M   'P 1'
_cell_length_a   3.89648557
_cell_length_b   6.20628929
_cell_length_c   8.30048561
_cell_angle_alpha   110.44780731
_cell_angle_beta   104.12027740
_cell_angle_gamma   90.83133698
_symmetry_Int_Tables_number   1
_chemical_formula_structural   US3
_chemical_formula_sum   'U2 S6'
_cell_volume   181.29582211
_cell_formula_units_Z   2
loop_
 _symmetry_equiv_pos_site_id
 _symmetry_equiv_pos_as_xyz
  1  'x, y, z'
loop_
 _atom_site_type_symbol
 _atom_site_label
 _atom_site_symmetry_multiplicity
 _atom_site_fract_x
 _atom_site_fract_y
 _atom_site_fract_z
 _atom_site_occupancy
  U  U0  1  0.70810544  0.76480716  0.76085746  1
  U  U1  1  0.47477201  0.26247945  0.30629787  1
  S  S2  1  0.25235239  0.56404382  0.86745006  1
  S  S3  1  0.27815273  0.05215518  0.90950644  1
  S  S4  1  0.90576303  0.43821436  0.16513173  1
  S  S5  1  0.59205735  0.02245500  0.53680784  1
  S  S6  1  0.90621144  0.95279509  0.16567473  1
  S  S7  1  0.09182461  0.51508218  0.53197783  1
