# generated using pymatgen
data_USeO
_symmetry_space_group_name_H-M   'P 1'
_cell_length_a   3.84977937
_cell_length_b   3.87530494
_cell_length_c   7.11844683
_cell_angle_alpha   89.76325226
_cell_angle_beta   89.89995575
_cell_angle_gamma   90.08810425
_symmetry_Int_Tables_number   1
_chemical_formula_structural   USeO
_chemical_formula_sum   'U2 Se2 O2'
_cell_volume   106.19940407
_cell_formula_units_Z   2
loop_
 _symmetry_equiv_pos_site_id
 _symmetry_equiv_pos_as_xyz
  1  'x, y, z'
loop_
 _atom_site_type_symbol
 _atom_site_label
 _atom_site_symmetry_multiplicity
 _atom_site_fract_x
 _atom_site_fract_y
 _atom_site_fract_z
 _atom_site_occupancy
  U  U0  1  0.35280180  0.67094219  0.05677229  1
  U  U1  1  0.85304511  0.17099316  0.42924297  1
  Se  Se2  1  0.85249984  0.17094406  0.87798780  1
  Se  Se3  1  0.35273921  0.67096955  0.61012334  1
  O  O4  1  0.35264930  0.17122185  0.24082880  1
  O  O5  1  0.85251272  0.67113042  0.24155571  1
