# generated using pymatgen
data_V2FeO4
_symmetry_space_group_name_H-M   'P 1'
_cell_length_a   6.04873180
_cell_length_b   6.05680752
_cell_length_c   6.04489422
_cell_angle_alpha   60.33351135
_cell_angle_beta   60.24756622
_cell_angle_gamma   60.18184662
_symmetry_Int_Tables_number   1
_chemical_formula_structural   V2FeO4
_chemical_formula_sum   'V4 Fe2 O8'
_cell_volume   157.49730626
_cell_formula_units_Z   2
loop_
 _symmetry_equiv_pos_site_id
 _symmetry_equiv_pos_as_xyz
  1  'x, y, z'
loop_
 _atom_site_type_symbol
 _atom_site_label
 _atom_site_symmetry_multiplicity
 _atom_site_fract_x
 _atom_site_fract_y
 _atom_site_fract_z
 _atom_site_occupancy
  V  V0  1  0.44051534  0.62554497  0.07190394  1
  V  V1  1  0.94073009  0.62560093  0.57131165  1
  V  V2  1  0.44011095  0.12546644  0.57243037  1
  V  V3  1  0.44120836  0.12525763  0.07143411  1
  Fe  Fe4  1  0.94053233  0.62531698  0.07220009  1
  Fe  Fe5  1  0.94104183  0.12518640  0.57160705  1
  O  O6  1  0.68123478  0.37613848  0.32071018  1
  O  O7  1  0.68372709  0.87453610  0.82155448  1
  O  O8  1  0.19763446  0.87205374  0.31741625  1
  O  O9  1  0.19985218  0.87496382  0.82117945  1
  O  O10  1  0.68890327  0.87761897  0.32244641  1
  O  O11  1  0.68899947  0.37836990  0.82339197  1
  O  O12  1  0.19568639  0.37298104  0.81864417  1
  O  O13  1  0.19717203  0.37658644  0.32220832  1
