# generated using pymatgen
data_V2GaC
_symmetry_space_group_name_H-M   'P 1'
_cell_length_a   2.95177341
_cell_length_b   2.96473336
_cell_length_c   12.47484016
_cell_angle_alpha   89.99311066
_cell_angle_beta   90.18471527
_cell_angle_gamma   120.40407562
_symmetry_Int_Tables_number   1
_chemical_formula_structural   V2GaC
_chemical_formula_sum   'V4 Ga2 C2'
_cell_volume   94.15612626
_cell_formula_units_Z   2
loop_
 _symmetry_equiv_pos_site_id
 _symmetry_equiv_pos_as_xyz
  1  'x, y, z'
loop_
 _atom_site_type_symbol
 _atom_site_label
 _atom_site_symmetry_multiplicity
 _atom_site_fract_x
 _atom_site_fract_y
 _atom_site_fract_z
 _atom_site_occupancy
  V  V0  1  0.16601984  0.85940456  0.27558678  1
  V  V1  1  0.16597144  0.85941279  0.60488796  1
  V  V2  1  0.49889478  0.52651155  0.10528783  1
  V  V3  1  0.49859464  0.52609032  0.77741534  1
  Ga  Ga4  1  0.16552395  0.85947162  0.93857253  1
  Ga  Ga5  1  0.49946213  0.52567309  0.43902591  1
  C  C6  1  0.83158427  0.19312128  0.18925504  1
  C  C7  1  0.83258486  0.19310746  0.68909180  1
