# generated using pymatgen
data_V3(O2F)2
_symmetry_space_group_name_H-M   'P 1'
_cell_length_a   4.79204321
_cell_length_b   5.58799505
_cell_length_c   7.68834496
_cell_angle_alpha   86.90830994
_cell_angle_beta   89.31081390
_cell_angle_gamma   89.97423553
_symmetry_Int_Tables_number   1
_chemical_formula_structural   V3(O2F)2
_chemical_formula_sum   'V6 O8 F4'
_cell_volume   205.56330741
_cell_formula_units_Z   2
loop_
 _symmetry_equiv_pos_site_id
 _symmetry_equiv_pos_as_xyz
  1  'x, y, z'
loop_
 _atom_site_type_symbol
 _atom_site_label
 _atom_site_symmetry_multiplicity
 _atom_site_fract_x
 _atom_site_fract_y
 _atom_site_fract_z
 _atom_site_occupancy
  V  V0  1  0.72301000  0.95741796  0.23761636  1
  V  V1  1  0.71059263  0.28638524  0.88116050  1
  V  V2  1  0.23330453  0.82048601  0.91834682  1
  V  V3  1  0.22956176  0.13467342  0.55872715  1
  V  V4  1  0.72576708  0.63902557  0.54944414  1
  V  V5  1  0.27652866  0.48252824  0.21912073  1
  O  O6  1  0.03814415  0.09929891  0.80116230  1
  O  O7  1  0.92680025  0.93204558  0.46582237  1
  O  O8  1  0.53871673  0.34604278  0.65578073  1
  O  O9  1  0.03745968  0.75752705  0.13799973  1
  O  O10  1  0.54004025  0.00639636  0.00106860  1
  O  O11  1  0.43048444  0.50951505  0.99446672  1
  O  O12  1  0.53165835  0.66842771  0.33235279  1
  O  O13  1  0.43342698  0.18148398  0.31993273  1
  F  F14  1  0.93299258  0.60017091  0.79003578  1
  F  F15  1  0.93202996  0.26700339  0.13219796  1
  F  F16  1  0.42786032  0.83272630  0.67146987  1
  F  F17  1  0.03729281  0.43849853  0.44682103  1
