# generated using pymatgen
data_V3O5F
_symmetry_space_group_name_H-M   'P 1'
_cell_length_a   5.52255440
_cell_length_b   5.54341316
_cell_length_c   7.20157099
_cell_angle_alpha   71.86975098
_cell_angle_beta   71.81958008
_cell_angle_gamma   72.25536346
_symmetry_Int_Tables_number   1
_chemical_formula_structural   V3O5F
_chemical_formula_sum   'V6 O10 F2'
_cell_volume   193.72448846
_cell_formula_units_Z   2
loop_
 _symmetry_equiv_pos_site_id
 _symmetry_equiv_pos_as_xyz
  1  'x, y, z'
loop_
 _atom_site_type_symbol
 _atom_site_label
 _atom_site_symmetry_multiplicity
 _atom_site_fract_x
 _atom_site_fract_y
 _atom_site_fract_z
 _atom_site_occupancy
  V  V0  1  0.77615398  0.27878782  0.87944001  1
  V  V1  1  0.77472889  0.26379704  0.41140330  1
  V  V2  1  0.11486492  0.60532624  0.04249578  1
  V  V3  1  0.38897204  0.95675933  0.21662126  1
  V  V4  1  0.43577221  0.93954992  0.71876419  1
  V  V5  1  0.10300869  0.60587573  0.55580491  1
  O  O6  1  0.53511804  0.04245048  0.92555839  1
  O  O7  1  0.47513214  0.57713217  0.88715899  1
  O  O8  1  0.19961235  0.70588887  0.25483873  1
  O  O9  1  0.06812663  0.97251058  0.88866597  1
  O  O10  1  0.40495494  0.30694643  0.55621088  1
  O  O11  1  0.87831169  0.38001686  0.59044898  1
  O  O12  1  0.33466187  0.84241569  0.51240432  1
  O  O13  1  0.00649200  0.51023585  0.85072428  1
  O  O14  1  0.12907021  0.25021145  0.21824822  1
  O  O15  1  0.79998946  0.90609980  0.55607557  1
  F  F16  1  0.72637349  0.65264267  0.21756785  1
  F  F17  1  0.66387552  0.17260836  0.18727015  1
