# generated using pymatgen
data_VBiPbO5
_symmetry_space_group_name_H-M   'P 1'
_cell_length_a   5.94344521
_cell_length_b   5.98940372
_cell_length_c   7.78967953
_cell_angle_alpha   76.37683105
_cell_angle_beta   78.49068451
_cell_angle_gamma   80.13529205
_symmetry_Int_Tables_number   1
_chemical_formula_structural   VBiPbO5
_chemical_formula_sum   'V2 Bi2 Pb2 O10'
_cell_volume   261.81422673
_cell_formula_units_Z   2
loop_
 _symmetry_equiv_pos_site_id
 _symmetry_equiv_pos_as_xyz
  1  'x, y, z'
loop_
 _atom_site_type_symbol
 _atom_site_label
 _atom_site_symmetry_multiplicity
 _atom_site_fract_x
 _atom_site_fract_y
 _atom_site_fract_z
 _atom_site_occupancy
  V  V0  1  0.07987960  0.67769420  0.86487859  1
  V  V1  1  0.37920457  0.96174830  0.36397725  1
  Bi  Bi2  1  0.51690394  0.11515032  0.79164267  1
  Bi  Bi3  1  0.89781058  0.15251952  0.18315069  1
  Pb  Pb4  1  0.43269816  0.52925003  0.16306819  1
  Pb  Pb5  1  0.91518068  0.50202650  0.55022979  1
  O  O6  1  0.66068351  0.86903203  0.40832996  1
  O  O7  1  0.81569904  0.82569164  0.79790163  1
  O  O8  1  0.21495116  0.42793462  0.77268547  1
  O  O9  1  0.71057856  0.32066387  0.89890432  1
  O  O10  1  0.16278058  0.17046730  0.39757839  1
  O  O11  1  0.66611767  0.30885294  0.40156871  1
  O  O12  1  0.00036262  0.53594947  0.09857247  1
  O  O13  1  0.23591235  0.72444099  0.40348703  1
  O  O14  1  0.44197139  0.05446452  0.11316169  1
  O  O15  1  0.28945959  0.85586679  0.82664251  1
