# generated using pymatgen
data_VH
_symmetry_space_group_name_H-M   'P 1'
_cell_length_a   2.74055886
_cell_length_b   2.72364211
_cell_length_c   2.71730399
_cell_angle_alpha   60.13917160
_cell_angle_beta   59.65136719
_cell_angle_gamma   59.59178543
_symmetry_Int_Tables_number   1
_chemical_formula_structural   VH
_chemical_formula_sum   'V1 H1'
_cell_volume   14.27426048
_cell_formula_units_Z   1
loop_
 _symmetry_equiv_pos_site_id
 _symmetry_equiv_pos_as_xyz
  1  'x, y, z'
loop_
 _atom_site_type_symbol
 _atom_site_label
 _atom_site_symmetry_multiplicity
 _atom_site_fract_x
 _atom_site_fract_y
 _atom_site_fract_z
 _atom_site_occupancy
  V  V0  1  0.13491739  0.28136918  0.67460501  1
  H  H1  1  0.63514137  0.78091413  0.17499971  1
