# generated using pymatgen
data_VIr
_symmetry_space_group_name_H-M   'P 1'
_cell_length_a   3.81672907
_cell_length_b   5.44986010
_cell_length_c   5.42126226
_cell_angle_alpha   93.95903778
_cell_angle_beta   89.94205475
_cell_angle_gamma   89.99209595
_symmetry_Int_Tables_number   1
_chemical_formula_structural   VIr
_chemical_formula_sum   'V4 Ir4'
_cell_volume   112.49656507
_cell_formula_units_Z   4
loop_
 _symmetry_equiv_pos_site_id
 _symmetry_equiv_pos_as_xyz
  1  'x, y, z'
loop_
 _atom_site_type_symbol
 _atom_site_label
 _atom_site_symmetry_multiplicity
 _atom_site_fract_x
 _atom_site_fract_y
 _atom_site_fract_z
 _atom_site_occupancy
  V  V0  1  0.11166340  0.92820841  0.16244464  1
  V  V1  1  0.11117988  0.42600206  0.07617107  1
  V  V2  1  0.11160424  0.51933903  0.57846159  1
  V  V3  1  0.61141580  0.18275242  0.91583771  1
  Ir  Ir4  1  0.61147535  0.23100354  0.38455570  1
  Ir  Ir5  1  0.11172026  0.02802096  0.67721593  1
  Ir  Ir6  1  0.61103028  0.72064406  0.35074323  1
  Ir  Ir7  1  0.61176664  0.68485487  0.85248703  1
