# generated using pymatgen
data_VO2F
_symmetry_space_group_name_H-M   'P 1'
_cell_length_a   3.75553775
_cell_length_b   5.97869587
_cell_length_c   9.56472397
_cell_angle_alpha   89.93466949
_cell_angle_beta   90.07746887
_cell_angle_gamma   90.12002563
_symmetry_Int_Tables_number   1
_chemical_formula_structural   VO2F
_chemical_formula_sum   'V4 O8 F4'
_cell_volume   214.75802616
_cell_formula_units_Z   4
loop_
 _symmetry_equiv_pos_site_id
 _symmetry_equiv_pos_as_xyz
  1  'x, y, z'
loop_
 _atom_site_type_symbol
 _atom_site_label
 _atom_site_symmetry_multiplicity
 _atom_site_fract_x
 _atom_site_fract_y
 _atom_site_fract_z
 _atom_site_occupancy
  V  V0  1  0.71224779  0.37175852  0.83905447  1
  V  V1  1  0.71476972  0.87163758  0.79437351  1
  V  V2  1  0.21026632  0.29306680  0.33566752  1
  V  V3  1  0.21493484  0.78575176  0.29302675  1
  O  O4  1  0.21740833  0.51305485  0.44039693  1
  O  O5  1  0.71668935  0.26406938  0.32857442  1
  O  O6  1  0.71747804  0.62720090  0.68404090  1
  O  O7  1  0.71756732  0.12938970  0.94310349  1
  O  O8  1  0.21652545  0.01248333  0.19512005  1
  O  O9  1  0.71720785  0.62773198  0.93761766  1
  O  O10  1  0.21685040  0.51275253  0.19812630  1
  O  O11  1  0.71739990  0.12297402  0.69915301  1
  F  F12  1  0.21864709  0.01213831  0.44908732  1
  F  F13  1  0.22075871  0.86434633  0.82435185  1
  F  F14  1  0.71731830  0.76774180  0.32444561  1
  F  F15  1  0.21662968  0.36963892  0.82547283  1
