# generated using pymatgen
data_VO
_symmetry_space_group_name_H-M   'P 1'
_cell_length_a   4.55229282
_cell_length_b   4.72124434
_cell_length_c   4.80907154
_cell_angle_alpha   90.14099884
_cell_angle_beta   90.22238159
_cell_angle_gamma   90.00230408
_symmetry_Int_Tables_number   1
_chemical_formula_structural   VO
_chemical_formula_sum   'V4 O4'
_cell_volume   103.35781455
_cell_formula_units_Z   4
loop_
 _symmetry_equiv_pos_site_id
 _symmetry_equiv_pos_as_xyz
  1  'x, y, z'
loop_
 _atom_site_type_symbol
 _atom_site_label
 _atom_site_symmetry_multiplicity
 _atom_site_fract_x
 _atom_site_fract_y
 _atom_site_fract_z
 _atom_site_occupancy
  V  V0  1  0.82864887  0.68971145  0.44100890  1
  V  V1  1  0.32828534  0.68989909  0.94068521  1
  V  V2  1  0.32771036  0.19052257  0.44165391  1
  V  V3  1  0.82794523  0.18986662  0.94162709  1
  O  O4  1  0.57525802  0.44126496  0.19194481  1
  O  O5  1  0.57564831  0.94094735  0.69148988  1
  O  O6  1  0.07631384  0.94042069  0.19193740  1
  O  O7  1  0.07606968  0.44084102  0.69192928  1
