# generated using pymatgen
data_VOF2
_symmetry_space_group_name_H-M   'P 1'
_cell_length_a   5.13063097
_cell_length_b   5.22577763
_cell_length_c   5.29538298
_cell_angle_alpha   86.45357513
_cell_angle_beta   73.90213776
_cell_angle_gamma   62.30587006
_symmetry_Int_Tables_number   1
_chemical_formula_structural   VOF2
_chemical_formula_sum   'V2 O2 F4'
_cell_volume   120.40808876
_cell_formula_units_Z   2
loop_
 _symmetry_equiv_pos_site_id
 _symmetry_equiv_pos_as_xyz
  1  'x, y, z'
loop_
 _atom_site_type_symbol
 _atom_site_label
 _atom_site_symmetry_multiplicity
 _atom_site_fract_x
 _atom_site_fract_y
 _atom_site_fract_z
 _atom_site_occupancy
  V  V0  1  0.48641902  0.81407565  0.14713475  1
  V  V1  1  0.67777467  0.80641514  0.63550478  1
  O  O2  1  0.37517259  0.80313718  0.87987226  1
  O  O3  1  0.69599622  0.58321601  0.39507759  1
  F  F4  1  0.89988351  0.56075191  0.88031405  1
  F  F5  1  0.60741681  0.10927452  0.88064486  1
  F  F6  1  0.43718073  0.10751554  0.38891491  1
  F  F7  1  0.07591672  0.81969738  0.38864696  1
