# generated using pymatgen
data_VOF
_symmetry_space_group_name_H-M   'P 1'
_cell_length_a   3.15524316
_cell_length_b   4.64638138
_cell_length_c   4.67003870
_cell_angle_alpha   87.82222748
_cell_angle_beta   89.78102875
_cell_angle_gamma   90.11267090
_symmetry_Int_Tables_number   1
_chemical_formula_structural   VOF
_chemical_formula_sum   'V2 O2 F2'
_cell_volume   68.41482750
_cell_formula_units_Z   2
loop_
 _symmetry_equiv_pos_site_id
 _symmetry_equiv_pos_as_xyz
  1  'x, y, z'
loop_
 _atom_site_type_symbol
 _atom_site_label
 _atom_site_symmetry_multiplicity
 _atom_site_fract_x
 _atom_site_fract_y
 _atom_site_fract_z
 _atom_site_occupancy
  V  V0  1  0.01212307  0.65579957  0.45953456  1
  V  V1  1  0.51243454  0.15486285  0.95848095  1
  O  O2  1  0.01252663  0.35195914  0.75912702  1
  O  O3  1  0.01284273  0.96062857  0.15224840  1
  F  F4  1  0.51236147  0.85033780  0.64845300  1
  F  F5  1  0.51268452  0.46179190  0.25898913  1
