# generated using pymatgen
data_VPO5
_symmetry_space_group_name_H-M   'P 1'
_cell_length_a   4.80496073
_cell_length_b   5.60058355
_cell_length_c   7.56090879
_cell_angle_alpha   95.08804321
_cell_angle_beta   91.09659576
_cell_angle_gamma   103.50760651
_symmetry_Int_Tables_number   1
_chemical_formula_structural   VPO5
_chemical_formula_sum   'V2 P2 O10'
_cell_volume   196.89383806
_cell_formula_units_Z   2
loop_
 _symmetry_equiv_pos_site_id
 _symmetry_equiv_pos_as_xyz
  1  'x, y, z'
loop_
 _atom_site_type_symbol
 _atom_site_label
 _atom_site_symmetry_multiplicity
 _atom_site_fract_x
 _atom_site_fract_y
 _atom_site_fract_z
 _atom_site_occupancy
  V  V0  1  0.04282460  0.64361936  0.26511011  1
  V  V1  1  0.57308441  0.44955793  0.87208796  1
  P  P2  1  0.45806310  0.60363585  0.47736266  1
  P  P3  1  0.12148992  0.90040308  0.97725749  1
  O  O4  1  0.77796024  0.61543560  0.43387556  1
  O  O5  1  0.78462058  0.43772927  0.09671559  1
  O  O6  1  0.33302936  0.71816957  0.01663357  1
  O  O7  1  0.88391674  0.75975883  0.84153241  1
  O  O8  1  0.27634528  0.16756018  0.92582691  1
  O  O9  1  0.37642398  0.52663481  0.66317236  1
  O  O10  1  0.25948685  0.43411165  0.32135156  1
  O  O11  1  0.37288719  0.84064746  0.42603377  1
  O  O12  1  0.73838753  0.26466364  0.73807937  1
  O  O13  1  0.99430043  0.93005872  0.16693541  1
