# generated using pymatgen
data_VS2
_symmetry_space_group_name_H-M   'P 1'
_cell_length_a   3.26390100
_cell_length_b   3.29155922
_cell_length_c   6.54325914
_cell_angle_alpha   75.89993286
_cell_angle_beta   75.41513824
_cell_angle_gamma   60.91152954
_symmetry_Int_Tables_number   1
_chemical_formula_structural   VS2
_chemical_formula_sum   'V1 S2'
_cell_volume   58.83673041
_cell_formula_units_Z   1
loop_
 _symmetry_equiv_pos_site_id
 _symmetry_equiv_pos_as_xyz
  1  'x, y, z'
loop_
 _atom_site_type_symbol
 _atom_site_label
 _atom_site_symmetry_multiplicity
 _atom_site_fract_x
 _atom_site_fract_y
 _atom_site_fract_z
 _atom_site_occupancy
  V  V0  1  0.90198022  0.85606903  0.06815904  1
  S  S1  1  0.64658463  0.59548014  0.84385592  1
  S  S2  1  0.15770133  0.11625105  0.28759736  1
