# generated using pymatgen
data_Y2B3C2
_symmetry_space_group_name_H-M   'P 1'
_cell_length_a   3.49362946
_cell_length_b   3.73456621
_cell_length_c   7.01330757
_cell_angle_alpha   90.06980896
_cell_angle_beta   103.87681580
_cell_angle_gamma   90.10437012
_symmetry_Int_Tables_number   1
_chemical_formula_structural   Y2B3C2
_chemical_formula_sum   'Y2 B3 C2'
_cell_volume   88.83301312
_cell_formula_units_Z   1
loop_
 _symmetry_equiv_pos_site_id
 _symmetry_equiv_pos_as_xyz
  1  'x, y, z'
loop_
 _atom_site_type_symbol
 _atom_site_label
 _atom_site_symmetry_multiplicity
 _atom_site_fract_x
 _atom_site_fract_y
 _atom_site_fract_z
 _atom_site_occupancy
  Y  Y0  1  0.67332399  0.28903240  0.57758927  1
  Y  Y1  1  0.40269759  0.28970754  0.03574163  1
  B  B2  1  0.82078403  0.78950220  0.86701846  1
  B  B3  1  0.25097278  0.78944063  0.73469055  1
  B  B4  1  0.03009404  0.79135031  0.28954658  1
  C  C5  1  0.13918598  0.78940666  0.50992471  1
  C  C6  1  0.92630970  0.78891152  0.08293757  1
