# generated using pymatgen
data_Y2CuIr
_symmetry_space_group_name_H-M   'P 1'
_cell_length_a   4.85422277
_cell_length_b   4.84807491
_cell_length_c   4.83581066
_cell_angle_alpha   59.74917603
_cell_angle_beta   59.77077103
_cell_angle_gamma   59.96374512
_symmetry_Int_Tables_number   1
_chemical_formula_structural   Y2CuIr
_chemical_formula_sum   'Y2 Cu1 Ir1'
_cell_volume   80.15670121
_cell_formula_units_Z   1
loop_
 _symmetry_equiv_pos_site_id
 _symmetry_equiv_pos_as_xyz
  1  'x, y, z'
loop_
 _atom_site_type_symbol
 _atom_site_label
 _atom_site_symmetry_multiplicity
 _atom_site_fract_x
 _atom_site_fract_y
 _atom_site_fract_z
 _atom_site_occupancy
  Y  Y0  1  0.95576638  0.52979565  0.55041295  1
  Y  Y1  1  0.45576686  0.03007356  0.05038006  1
  Cu  Cu2  1  0.70583415  0.27961880  0.30061412  1
  Ir  Ir3  1  0.20550069  0.77964753  0.80072916  1
