# generated using pymatgen
data_Y2Mg
_symmetry_space_group_name_H-M   'P 1'
_cell_length_a   3.56626129
_cell_length_b   5.60104322
_cell_length_c   9.23282528
_cell_angle_alpha   89.80573273
_cell_angle_beta   101.06369019
_cell_angle_gamma   90.04498291
_symmetry_Int_Tables_number   1
_chemical_formula_structural   Y2Mg
_chemical_formula_sum   'Y4 Mg2'
_cell_volume   180.99503388
_cell_formula_units_Z   2
loop_
 _symmetry_equiv_pos_site_id
 _symmetry_equiv_pos_as_xyz
  1  'x, y, z'
loop_
 _atom_site_type_symbol
 _atom_site_label
 _atom_site_symmetry_multiplicity
 _atom_site_fract_x
 _atom_site_fract_y
 _atom_site_fract_z
 _atom_site_occupancy
  Y  Y0  1  0.93569076  0.21003638  0.87952495  1
  Y  Y1  1  0.60226375  0.20913900  0.21600331  1
  Y  Y2  1  0.71915019  0.71030933  0.45013657  1
  Y  Y3  1  0.27244696  0.21009357  0.55466151  1
  Mg  Mg4  1  0.04829148  0.71030444  0.10631953  1
  Mg  Mg5  1  0.38737863  0.71015298  0.78555214  1
