# generated using pymatgen
data_Y2Mg
_symmetry_space_group_name_H-M   'P 1'
_cell_length_a   3.56746221
_cell_length_b   6.48028088
_cell_length_c   8.40853500
_cell_angle_alpha   102.50109100
_cell_angle_beta   90.37332916
_cell_angle_gamma   105.94786835
_symmetry_Int_Tables_number   1
_chemical_formula_structural   Y2Mg
_chemical_formula_sum   'Y4 Mg2'
_cell_volume   182.02548634
_cell_formula_units_Z   2
loop_
 _symmetry_equiv_pos_site_id
 _symmetry_equiv_pos_as_xyz
  1  'x, y, z'
loop_
 _atom_site_type_symbol
 _atom_site_label
 _atom_site_symmetry_multiplicity
 _atom_site_fract_x
 _atom_site_fract_y
 _atom_site_fract_z
 _atom_site_occupancy
  Y  Y0  1  0.19728430  0.33049348  0.85563862  1
  Y  Y1  1  0.25105605  0.44104990  0.46618220  1
  Y  Y2  1  0.86954886  0.67222601  0.18337645  1
  Y  Y3  1  0.53028029  0.99298477  0.52620959  1
  Mg  Mg4  1  0.58785272  0.11296119  0.13252981  1
  Mg  Mg5  1  0.92094851  0.78208727  0.80540836  1
