# generated using pymatgen
data_Y3Lu
_symmetry_space_group_name_H-M   'P 1'
_cell_length_a   5.70775652
_cell_length_b   7.11929750
_cell_length_c   7.13041592
_cell_angle_alpha   119.83017731
_cell_angle_beta   90.21049500
_cell_angle_gamma   89.95299530
_symmetry_Int_Tables_number   1
_chemical_formula_structural   Y3Lu
_chemical_formula_sum   'Y6 Lu2'
_cell_volume   251.35382341
_cell_formula_units_Z   2
loop_
 _symmetry_equiv_pos_site_id
 _symmetry_equiv_pos_as_xyz
  1  'x, y, z'
loop_
 _atom_site_type_symbol
 _atom_site_label
 _atom_site_symmetry_multiplicity
 _atom_site_fract_x
 _atom_site_fract_y
 _atom_site_fract_z
 _atom_site_occupancy
  Y  Y0  1  0.03684198  0.38012564  0.55811256  1
  Y  Y1  1  0.53647000  0.54735482  0.89171106  1
  Y  Y2  1  0.53682601  0.04799681  0.89142758  1
  Y  Y3  1  0.53701890  0.54724097  0.39152944  1
  Y  Y4  1  0.03705528  0.88008422  0.05851603  1
  Y  Y5  1  0.53684801  0.04720126  0.39175901  1
  Lu  Lu6  1  0.03677046  0.38025302  0.05852063  1
  Lu  Lu7  1  0.03646170  0.88020468  0.55838680  1
