# generated using pymatgen
data_Y4US7
_symmetry_space_group_name_H-M   'P 1'
_cell_length_a   3.73585272
_cell_length_b   6.74413443
_cell_length_c   11.93928528
_cell_angle_alpha   104.73500061
_cell_angle_beta   89.78889465
_cell_angle_gamma   106.27909088
_symmetry_Int_Tables_number   1
_chemical_formula_structural   Y4US7
_chemical_formula_sum   'Y4 U1 S7'
_cell_volume   278.51322120
_cell_formula_units_Z   1
loop_
 _symmetry_equiv_pos_site_id
 _symmetry_equiv_pos_as_xyz
  1  'x, y, z'
loop_
 _atom_site_type_symbol
 _atom_site_label
 _atom_site_symmetry_multiplicity
 _atom_site_fract_x
 _atom_site_fract_y
 _atom_site_fract_z
 _atom_site_occupancy
  Y  Y0  1  0.72525132  0.61471224  0.82402992  1
  Y  Y1  1  0.54676151  0.25365162  0.05550423  1
  Y  Y2  1  0.13938330  0.44207031  0.44039458  1
  Y  Y3  1  0.83579004  0.83260661  0.25494394  1
  U  U4  1  0.44007492  0.04456110  0.60318297  1
  S  S5  1  0.48478162  0.12531377  0.37886211  1
  S  S6  1  0.10569860  0.38463736  0.93203127  1
  S  S7  1  0.16906214  0.49777913  0.22245699  1
  S  S8  1  0.36221924  0.89330053  0.79534900  1
  S  S9  1  0.37224320  0.91985846  0.09435807  1
  S  S10  1  0.79565817  0.75001460  0.48875624  1
  S  S11  1  0.09519037  0.35512829  0.65591890  1
