# generated using pymatgen
data_YAu3
_symmetry_space_group_name_H-M   'P 1'
_cell_length_a   5.08264542
_cell_length_b   5.23135567
_cell_length_c   6.18901253
_cell_angle_alpha   89.92218018
_cell_angle_beta   89.98294067
_cell_angle_gamma   90.07327271
_symmetry_Int_Tables_number   1
_chemical_formula_structural   YAu3
_chemical_formula_sum   'Y2 Au6'
_cell_volume   164.56013957
_cell_formula_units_Z   2
loop_
 _symmetry_equiv_pos_site_id
 _symmetry_equiv_pos_as_xyz
  1  'x, y, z'
loop_
 _atom_site_type_symbol
 _atom_site_label
 _atom_site_symmetry_multiplicity
 _atom_site_fract_x
 _atom_site_fract_y
 _atom_site_fract_z
 _atom_site_occupancy
  Y  Y0  1  0.67818737  0.17182229  0.30411530  1
  Y  Y1  1  0.17753850  0.87076145  0.80426186  1
  Au  Au2  1  0.67766464  0.67174727  0.05108254  1
  Au  Au3  1  0.17693192  0.36262330  0.06641445  1
  Au  Au4  1  0.67738533  0.18441334  0.80383521  1
  Au  Au5  1  0.17711000  0.86146420  0.30276614  1
  Au  Au6  1  0.17723294  0.36215031  0.54848266  1
  Au  Au7  1  0.67684859  0.68285096  0.56538624  1
