# generated using pymatgen
data_Yb(GaFe)6
_symmetry_space_group_name_H-M   'P 1'
_cell_length_a   5.11550617
_cell_length_b   6.61292648
_cell_length_c   6.62032127
_cell_angle_alpha   81.05995941
_cell_angle_beta   67.24240112
_cell_angle_gamma   66.90339661
_symmetry_Int_Tables_number   1
_chemical_formula_structural   Yb(GaFe)6
_chemical_formula_sum   'Yb1 Ga6 Fe6'
_cell_volume   189.96487233
_cell_formula_units_Z   1
loop_
 _symmetry_equiv_pos_site_id
 _symmetry_equiv_pos_as_xyz
  1  'x, y, z'
loop_
 _atom_site_type_symbol
 _atom_site_label
 _atom_site_symmetry_multiplicity
 _atom_site_fract_x
 _atom_site_fract_y
 _atom_site_fract_z
 _atom_site_occupancy
  Yb  Yb0  1  0.23689091  0.85467857  0.77538538  1
  Ga  Ga1  1  0.89371294  0.19837520  0.11906777  1
  Ga  Ga2  1  0.23704027  0.18875009  0.44146779  1
  Ga  Ga3  1  0.55277449  0.03786875  0.95482081  1
  Ga  Ga4  1  0.91903692  0.67417288  0.59293985  1
  Ga  Ga5  1  0.23754133  0.52084255  0.11035375  1
  Ga  Ga6  1  0.57962042  0.51392037  0.43350762  1
  Fe  Fe7  1  0.73660064  0.61174357  0.01942847  1
  Fe  Fe8  1  0.73673010  0.85618883  0.27532956  1
  Fe  Fe9  1  0.73683488  0.35592204  0.77497524  1
  Fe  Fe10  1  0.23703301  0.85644311  0.27540407  1
  Fe  Fe11  1  0.73715907  0.10232630  0.53200889  1
  Fe  Fe12  1  0.23712553  0.35669482  0.77397305  1
