# generated using pymatgen
data_Yb(Ni2As)2
_symmetry_space_group_name_H-M   'P 1'
_cell_length_a   3.75761175
_cell_length_b   7.28535080
_cell_length_c   7.26578760
_cell_angle_alpha   89.96145630
_cell_angle_beta   89.85595703
_cell_angle_gamma   90.06558990
_symmetry_Int_Tables_number   1
_chemical_formula_structural   Yb(Ni2As)2
_chemical_formula_sum   'Yb2 Ni8 As4'
_cell_volume   198.90390790
_cell_formula_units_Z   2
loop_
 _symmetry_equiv_pos_site_id
 _symmetry_equiv_pos_as_xyz
  1  'x, y, z'
loop_
 _atom_site_type_symbol
 _atom_site_label
 _atom_site_symmetry_multiplicity
 _atom_site_fract_x
 _atom_site_fract_y
 _atom_site_fract_z
 _atom_site_occupancy
  Yb  Yb0  1  0.63771766  0.13588654  0.11192493  1
  Yb  Yb1  1  0.13775836  0.63519382  0.61172599  1
  Ni  Ni2  1  0.13758415  0.48360473  0.02367483  1
  Ni  Ni3  1  0.13775262  0.04984250  0.45608109  1
  Ni  Ni4  1  0.63725257  0.98383731  0.70217323  1
  Ni  Ni5  1  0.63745195  0.29284987  0.52397966  1
  Ni  Ni6  1  0.63773286  0.55144334  0.27236417  1
  Ni  Ni7  1  0.13738474  0.79224783  0.20239826  1
  Ni  Ni8  1  0.13728553  0.22595449  0.77240509  1
  Ni  Ni9  1  0.63765818  0.72543782  0.95587683  1
  As  As10  1  0.63749403  0.41794199  0.82854551  1
  As  As11  1  0.13737862  0.35315090  0.32751936  1
  As  As12  1  0.13751768  0.91787440  0.89575982  1
  As  As13  1  0.63734382  0.85318345  0.39669293  1
