# generated using pymatgen
data_Yb2CuGe6
_symmetry_space_group_name_H-M   'P 1'
_cell_length_a   6.20767450
_cell_length_b   6.19384766
_cell_length_c   9.26403427
_cell_angle_alpha   89.80375671
_cell_angle_beta   89.94503784
_cell_angle_gamma   90.03970337
_symmetry_Int_Tables_number   1
_chemical_formula_structural   Yb2CuGe6
_chemical_formula_sum   'Yb4 Cu2 Ge12'
_cell_volume   356.19412874
_cell_formula_units_Z   2
loop_
 _symmetry_equiv_pos_site_id
 _symmetry_equiv_pos_as_xyz
  1  'x, y, z'
loop_
 _atom_site_type_symbol
 _atom_site_label
 _atom_site_symmetry_multiplicity
 _atom_site_fract_x
 _atom_site_fract_y
 _atom_site_fract_z
 _atom_site_occupancy
  Yb  Yb0  1  0.85862482  0.49515134  0.48682642  1
  Yb  Yb1  1  0.36364937  0.49688506  0.97957164  1
  Yb  Yb2  1  0.85911107  0.99480933  0.98667181  1
  Yb  Yb3  1  0.36384124  0.99587637  0.48130924  1
  Cu  Cu4  1  0.13993198  0.71287936  0.23879696  1
  Cu  Cu5  1  0.13997807  0.21223983  0.73716688  1
  Ge  Ge6  1  0.36238116  0.99478614  0.93800795  1
  Ge  Ge7  1  0.57443231  0.22864275  0.73472542  1
  Ge  Ge8  1  0.13933069  0.26869813  0.23564398  1
  Ge  Ge9  1  0.13999522  0.76793045  0.73525256  1
  Ge  Ge10  1  0.86334985  0.49318689  0.83402020  1
  Ge  Ge11  1  0.86315727  0.49603975  0.09309809  1
  Ge  Ge12  1  0.58243996  0.26624477  0.23532085  1
  Ge  Ge13  1  0.86327207  0.99550021  0.59292901  1
  Ge  Ge14  1  0.58247215  0.76743215  0.73540074  1
  Ge  Ge15  1  0.36200219  0.49518475  0.43965748  1
  Ge  Ge16  1  0.57389754  0.72940969  0.23562424  1
  Ge  Ge17  1  0.86287647  0.99390179  0.33372036  1
