# generated using pymatgen
data_Yb2InHg
_symmetry_space_group_name_H-M   'P 1'
_cell_length_a   5.31278563
_cell_length_b   5.30313873
_cell_length_c   5.29875851
_cell_angle_alpha   59.63720322
_cell_angle_beta   59.83776855
_cell_angle_gamma   60.09942245
_symmetry_Int_Tables_number   1
_chemical_formula_structural   Yb2InHg
_chemical_formula_sum   'Yb2 In1 Hg1'
_cell_volume   105.22034297
_cell_formula_units_Z   1
loop_
 _symmetry_equiv_pos_site_id
 _symmetry_equiv_pos_as_xyz
  1  'x, y, z'
loop_
 _atom_site_type_symbol
 _atom_site_label
 _atom_site_symmetry_multiplicity
 _atom_site_fract_x
 _atom_site_fract_y
 _atom_site_fract_z
 _atom_site_occupancy
  Yb  Yb0  1  0.11903889  0.44244257  0.70170784  1
  Yb  Yb1  1  0.61918753  0.94233441  0.20218876  1
  In  In2  1  0.36893252  0.69230431  0.95189685  1
  Hg  Hg3  1  0.86890602  0.19231462  0.45165944  1
