# generated using pymatgen
data_Yb2TlHg
_symmetry_space_group_name_H-M   'P 1'
_cell_length_a   5.35638666
_cell_length_b   5.35161448
_cell_length_c   5.34314871
_cell_angle_alpha   59.90164566
_cell_angle_beta   59.81787491
_cell_angle_gamma   60.05593872
_symmetry_Int_Tables_number   1
_chemical_formula_structural   Yb2TlHg
_chemical_formula_sum   'Yb2 Tl1 Hg1'
_cell_volume   108.11779435
_cell_formula_units_Z   1
loop_
 _symmetry_equiv_pos_site_id
 _symmetry_equiv_pos_as_xyz
  1  'x, y, z'
loop_
 _atom_site_type_symbol
 _atom_site_label
 _atom_site_symmetry_multiplicity
 _atom_site_fract_x
 _atom_site_fract_y
 _atom_site_fract_z
 _atom_site_occupancy
  Yb  Yb0  1  0.40620878  0.52286077  0.42717999  1
  Yb  Yb1  1  0.90590620  0.02284462  0.92680383  1
  Tl  Tl2  1  0.65583831  0.77258533  0.67688793  1
  Hg  Hg3  1  0.15584081  0.27257475  0.17720900  1
