# generated using pymatgen
data_Yb2TlIn
_symmetry_space_group_name_H-M   'P 1'
_cell_length_a   5.39460754
_cell_length_b   5.38772917
_cell_length_c   5.40796709
_cell_angle_alpha   59.94192123
_cell_angle_beta   59.99824524
_cell_angle_gamma   60.02603149
_symmetry_Int_Tables_number   1
_chemical_formula_structural   Yb2TlIn
_chemical_formula_sum   'Yb2 Tl1 In1'
_cell_volume   111.11513076
_cell_formula_units_Z   1
loop_
 _symmetry_equiv_pos_site_id
 _symmetry_equiv_pos_as_xyz
  1  'x, y, z'
loop_
 _atom_site_type_symbol
 _atom_site_label
 _atom_site_symmetry_multiplicity
 _atom_site_fract_x
 _atom_site_fract_y
 _atom_site_fract_z
 _atom_site_occupancy
  Yb  Yb0  1  0.93214369  0.77039659  0.15259601  1
  Yb  Yb1  1  0.43176425  0.27056938  0.65255302  1
  Tl  Tl2  1  0.18143530  0.02016083  0.40275812  1
  In  In3  1  0.68174088  0.52049780  0.90233034  1
