# generated using pymatgen
data_Yb2ZnSn
_symmetry_space_group_name_H-M   'P 1'
_cell_length_a   5.23918819
_cell_length_b   5.24256420
_cell_length_c   5.23854160
_cell_angle_alpha   59.92661667
_cell_angle_beta   60.09200668
_cell_angle_gamma   60.06494141
_symmetry_Int_Tables_number   1
_chemical_formula_structural   Yb2ZnSn
_chemical_formula_sum   'Yb2 Zn1 Sn1'
_cell_volume   101.80643201
_cell_formula_units_Z   1
loop_
 _symmetry_equiv_pos_site_id
 _symmetry_equiv_pos_as_xyz
  1  'x, y, z'
loop_
 _atom_site_type_symbol
 _atom_site_label
 _atom_site_symmetry_multiplicity
 _atom_site_fract_x
 _atom_site_fract_y
 _atom_site_fract_z
 _atom_site_occupancy
  Yb  Yb0  1  0.91769284  0.18123879  0.11958320  1
  Yb  Yb1  1  0.41767800  0.68094474  0.61967134  1
  Zn  Zn2  1  0.16758721  0.43037930  0.36941484  1
  Sn  Sn3  1  0.66743940  0.93109655  0.86976868  1
