# generated using pymatgen
data_Yb3Sm3S8
_symmetry_space_group_name_H-M   'P 1'
_cell_length_a   7.24150324
_cell_length_b   7.26852083
_cell_length_c   7.27564001
_cell_angle_alpha   109.25296783
_cell_angle_beta   109.59011078
_cell_angle_gamma   109.42529297
_symmetry_Int_Tables_number   1
_chemical_formula_structural   Yb3Sm3S8
_chemical_formula_sum   'Yb3 Sm3 S8'
_cell_volume   295.32318676
_cell_formula_units_Z   1
loop_
 _symmetry_equiv_pos_site_id
 _symmetry_equiv_pos_as_xyz
  1  'x, y, z'
loop_
 _atom_site_type_symbol
 _atom_site_label
 _atom_site_symmetry_multiplicity
 _atom_site_fract_x
 _atom_site_fract_y
 _atom_site_fract_z
 _atom_site_occupancy
  Yb  Yb0  1  0.04456626  0.27215743  0.99983126  1
  Yb  Yb1  1  0.54364461  0.52385032  0.75038248  1
  Yb  Yb2  1  0.66842657  0.77295458  0.37397221  1
  Sm  Sm3  1  0.42093775  0.02611215  0.87440127  1
  Sm  Sm4  1  0.92110401  0.39746016  0.50113815  1
  Sm  Sm5  1  0.16795325  0.89720780  0.25010318  1
  S  S6  1  0.29460686  0.64981377  0.48422021  1
  S  S7  1  0.44124010  0.28997841  0.26904041  1
  S  S8  1  0.79598278  0.00576149  0.12466541  1
  S  S9  1  0.64778799  0.14728041  0.62454861  1
  S  S10  1  0.94179404  0.79015076  0.77212018  1
  S  S11  1  0.79600054  0.50353843  0.12567604  1
  S  S12  1  0.14975692  0.14763042  0.62453026  1
  S  S13  1  0.29481375  0.65035051  0.97966045  1
