# generated using pymatgen
data_YbAg(MoO4)2
_symmetry_space_group_name_H-M   'P 1'
_cell_length_a   5.30549860
_cell_length_b   5.29748631
_cell_length_c   6.81041050
_cell_angle_alpha   112.60079956
_cell_angle_beta   112.53520966
_cell_angle_gamma   89.91014862
_symmetry_Int_Tables_number   1
_chemical_formula_structural   YbAg(MoO4)2
_chemical_formula_sum   'Yb1 Ag1 Mo2 O8'
_cell_volume   160.81864572
_cell_formula_units_Z   1
loop_
 _symmetry_equiv_pos_site_id
 _symmetry_equiv_pos_as_xyz
  1  'x, y, z'
loop_
 _atom_site_type_symbol
 _atom_site_label
 _atom_site_symmetry_multiplicity
 _atom_site_fract_x
 _atom_site_fract_y
 _atom_site_fract_z
 _atom_site_occupancy
  Yb  Yb0  1  0.30938840  0.41265845  0.87696862  1
  Ag  Ag1  1  0.05885196  0.66281962  0.37702531  1
  Mo  Mo2  1  0.55930680  0.16295362  0.37589708  1
  Mo  Mo3  1  0.80918556  0.91466433  0.87615079  1
  O  O4  1  0.40749684  0.39768624  0.55294889  1
  O  O5  1  0.32418883  0.83830452  0.20561621  1
  O  O6  1  0.97701490  0.68335408  0.70869291  1
  O  O7  1  0.49188787  0.99381179  0.70929325  1
  O  O8  1  0.88654184  0.11160088  0.55231416  1
  O  O9  1  0.73614103  0.75762045  0.04560296  1
  O  O10  1  0.62055892  0.32032856  0.20459871  1
  O  O11  1  0.05436672  0.23718694  0.04656216  1
