# generated using pymatgen
data_YbAlCu4
_symmetry_space_group_name_H-M   'P 1'
_cell_length_a   4.96975803
_cell_length_b   4.97150755
_cell_length_c   4.96278763
_cell_angle_alpha   59.90263367
_cell_angle_beta   59.82324219
_cell_angle_gamma   59.95581055
_symmetry_Int_Tables_number   1
_chemical_formula_structural   YbAlCu4
_chemical_formula_sum   'Yb1 Al1 Cu4'
_cell_volume   86.49403173
_cell_formula_units_Z   1
loop_
 _symmetry_equiv_pos_site_id
 _symmetry_equiv_pos_as_xyz
  1  'x, y, z'
loop_
 _atom_site_type_symbol
 _atom_site_label
 _atom_site_symmetry_multiplicity
 _atom_site_fract_x
 _atom_site_fract_y
 _atom_site_fract_z
 _atom_site_occupancy
  Yb  Yb0  1  0.69637120  0.66611725  0.05100276  1
  Al  Al1  1  0.94562006  0.91491777  0.30356297  1
  Cu  Cu2  1  0.32124543  0.28938761  0.17885193  1
  Cu  Cu3  1  0.32188141  0.79175079  0.67329639  1
  Cu  Cu4  1  0.82238799  0.28982580  0.67448211  1
  Cu  Cu5  1  0.32197785  0.29013282  0.67509139  1
