# generated using pymatgen
data_YbCu4Ag
_symmetry_space_group_name_H-M   'P 1'
_cell_length_a   5.03734827
_cell_length_b   5.04952574
_cell_length_c   5.03723669
_cell_angle_alpha   60.04648590
_cell_angle_beta   60.03393555
_cell_angle_gamma   60.10771179
_symmetry_Int_Tables_number   1
_chemical_formula_structural   YbCu4Ag
_chemical_formula_sum   'Yb1 Cu4 Ag1'
_cell_volume   90.72904115
_cell_formula_units_Z   1
loop_
 _symmetry_equiv_pos_site_id
 _symmetry_equiv_pos_as_xyz
  1  'x, y, z'
loop_
 _atom_site_type_symbol
 _atom_site_label
 _atom_site_symmetry_multiplicity
 _atom_site_fract_x
 _atom_site_fract_y
 _atom_site_fract_z
 _atom_site_occupancy
  Yb  Yb0  1  0.46441513  0.83410937  0.70280576  1
  Cu  Cu1  1  0.83944672  0.70745903  0.07809833  1
  Cu  Cu2  1  0.33814320  0.20865089  0.07751027  1
  Cu  Cu3  1  0.83929634  0.20886400  0.57678759  1
  Cu  Cu4  1  0.83939815  0.20830087  0.07785842  1
  Ag  Ag5  1  0.21474890  0.58493876  0.45359355  1
