# generated using pymatgen
data_YbGa2
_symmetry_space_group_name_H-M   'P 1'
_cell_length_a   4.04060125
_cell_length_b   4.05228996
_cell_length_c   4.56291485
_cell_angle_alpha   90.16830444
_cell_angle_beta   89.68352509
_cell_angle_gamma   120.21222687
_symmetry_Int_Tables_number   1
_chemical_formula_structural   YbGa2
_chemical_formula_sum   'Yb1 Ga2'
_cell_volume   64.56247015
_cell_formula_units_Z   1
loop_
 _symmetry_equiv_pos_site_id
 _symmetry_equiv_pos_as_xyz
  1  'x, y, z'
loop_
 _atom_site_type_symbol
 _atom_site_label
 _atom_site_symmetry_multiplicity
 _atom_site_fract_x
 _atom_site_fract_y
 _atom_site_fract_z
 _atom_site_occupancy
  Yb  Yb0  1  0.02662725  0.72728926  0.79611599  1
  Ga  Ga1  1  0.36102426  0.39884368  0.22580114  1
  Ga  Ga2  1  0.69420409  0.06414944  0.37665609  1
