# generated using pymatgen
data_YbGaCu4
_symmetry_space_group_name_H-M   'P 1'
_cell_length_a   4.91895247
_cell_length_b   4.95076275
_cell_length_c   4.93919230
_cell_angle_alpha   60.28699112
_cell_angle_beta   60.35089493
_cell_angle_gamma   60.17261124
_symmetry_Int_Tables_number   1
_chemical_formula_structural   YbGaCu4
_chemical_formula_sum   'Yb1 Ga1 Cu4'
_cell_volume   85.57188137
_cell_formula_units_Z   1
loop_
 _symmetry_equiv_pos_site_id
 _symmetry_equiv_pos_as_xyz
  1  'x, y, z'
loop_
 _atom_site_type_symbol
 _atom_site_label
 _atom_site_symmetry_multiplicity
 _atom_site_fract_x
 _atom_site_fract_y
 _atom_site_fract_z
 _atom_site_occupancy
  Yb  Yb0  1  0.15201890  0.74341059  0.44806594  1
  Ga  Ga1  1  0.52873200  0.12097664  0.30645123  1
  Cu  Cu2  1  0.52687198  0.61646038  0.82284796  1
  Cu  Cu3  1  0.90274590  0.49300292  0.19675460  1
  Cu  Cu4  1  0.52657247  0.11927421  0.82287741  1
  Cu  Cu5  1  0.02395973  0.11916831  0.82298082  1
