# generated using pymatgen
data_YbGe3
_symmetry_space_group_name_H-M   'P 1'
_cell_length_a   3.95214748
_cell_length_b   4.41049290
_cell_length_c   10.17151165
_cell_angle_alpha   89.88015747
_cell_angle_beta   101.03920746
_cell_angle_gamma   90.18856049
_symmetry_Int_Tables_number   1
_chemical_formula_structural   YbGe3
_chemical_formula_sum   'Yb2 Ge6'
_cell_volume   174.01698548
_cell_formula_units_Z   2
loop_
 _symmetry_equiv_pos_site_id
 _symmetry_equiv_pos_as_xyz
  1  'x, y, z'
loop_
 _atom_site_type_symbol
 _atom_site_label
 _atom_site_symmetry_multiplicity
 _atom_site_fract_x
 _atom_site_fract_y
 _atom_site_fract_z
 _atom_site_occupancy
  Yb  Yb0  1  0.34585917  0.52172118  0.39614823  1
  Yb  Yb1  1  0.10743053  0.02113897  0.92199945  1
  Ge  Ge2  1  0.19510084  0.52034473  0.10096361  1
  Ge  Ge3  1  0.88650417  0.02096903  0.48270273  1
  Ge  Ge4  1  0.75127894  0.02135399  0.21724361  1
  Ge  Ge5  1  0.56649750  0.52037847  0.84965223  1
  Ge  Ge6  1  0.47096914  0.02112604  0.65911156  1
  Ge  Ge7  1  0.97369653  0.52091718  0.66063267  1
