# generated using pymatgen
data_YbHgPd2
_symmetry_space_group_name_H-M   'P 1'
_cell_length_a   4.77601814
_cell_length_b   4.77086306
_cell_length_c   4.74073648
_cell_angle_alpha   59.51180267
_cell_angle_beta   59.48906708
_cell_angle_gamma   59.90616608
_symmetry_Int_Tables_number   1
_chemical_formula_structural   YbHgPd2
_chemical_formula_sum   'Yb1 Hg1 Pd2'
_cell_volume   75.74754843
_cell_formula_units_Z   1
loop_
 _symmetry_equiv_pos_site_id
 _symmetry_equiv_pos_as_xyz
  1  'x, y, z'
loop_
 _atom_site_type_symbol
 _atom_site_label
 _atom_site_symmetry_multiplicity
 _atom_site_fract_x
 _atom_site_fract_y
 _atom_site_fract_z
 _atom_site_occupancy
  Yb  Yb0  1  0.16007046  0.71225107  0.85424399  1
  Hg  Hg1  1  0.65984827  0.21218020  0.35426500  1
  Pd  Pd2  1  0.91015440  0.46220866  0.60437363  1
  Pd  Pd3  1  0.41034037  0.96293616  0.10438460  1
