# generated using pymatgen
data_YBiTe3
_symmetry_space_group_name_H-M   'P 1'
_cell_length_a   4.53941107
_cell_length_b   4.53602266
_cell_length_c   9.66880894
_cell_angle_alpha   89.82492065
_cell_angle_beta   89.86441803
_cell_angle_gamma   120.31399536
_symmetry_Int_Tables_number   1
_chemical_formula_structural   YBiTe3
_chemical_formula_sum   'Y1 Bi1 Te3'
_cell_volume   171.86562666
_cell_formula_units_Z   1
loop_
 _symmetry_equiv_pos_site_id
 _symmetry_equiv_pos_as_xyz
  1  'x, y, z'
loop_
 _atom_site_type_symbol
 _atom_site_label
 _atom_site_symmetry_multiplicity
 _atom_site_fract_x
 _atom_site_fract_y
 _atom_site_fract_z
 _atom_site_occupancy
  Y  Y0  1  0.71726459  0.20040278  0.38179547  1
  Bi  Bi1  1  0.38402170  0.53483182  0.99959213  1
  Te  Te2  1  0.71698678  0.20064293  0.82483667  1
  Te  Te3  1  0.38317087  0.53501189  0.53157008  1
  Te  Te4  1  0.04986588  0.86854279  0.19757067  1
