# generated using pymatgen
data_YbNbRu2
_symmetry_space_group_name_H-M   'P 1'
_cell_length_a   4.57887554
_cell_length_b   4.58442307
_cell_length_c   4.56194401
_cell_angle_alpha   59.78388596
_cell_angle_beta   59.85653687
_cell_angle_gamma   60.02504730
_symmetry_Int_Tables_number   1
_chemical_formula_structural   YbNbRu2
_chemical_formula_sum   'Yb1 Nb1 Ru2'
_cell_volume   67.54205439
_cell_formula_units_Z   1
loop_
 _symmetry_equiv_pos_site_id
 _symmetry_equiv_pos_as_xyz
  1  'x, y, z'
loop_
 _atom_site_type_symbol
 _atom_site_label
 _atom_site_symmetry_multiplicity
 _atom_site_fract_x
 _atom_site_fract_y
 _atom_site_fract_z
 _atom_site_occupancy
  Yb  Yb0  1  0.58057165  0.95960009  0.07420991  1
  Nb  Nb1  1  0.08073567  0.45929939  0.57380855  1
  Ru  Ru2  1  0.83023882  0.20949773  0.32402214  1
  Ru  Ru3  1  0.33035460  0.70967227  0.82392681  1
