# generated using pymatgen
data_YbPd
_symmetry_space_group_name_H-M   'P 1'
_cell_length_a   3.78571486
_cell_length_b   7.20616627
_cell_length_c   7.45778179
_cell_angle_alpha   118.57084656
_cell_angle_beta   89.94033813
_cell_angle_gamma   89.88356018
_symmetry_Int_Tables_number   1
_chemical_formula_structural   YbPd
_chemical_formula_sum   'Yb4 Pd4'
_cell_volume   178.67603915
_cell_formula_units_Z   4
loop_
 _symmetry_equiv_pos_site_id
 _symmetry_equiv_pos_as_xyz
  1  'x, y, z'
loop_
 _atom_site_type_symbol
 _atom_site_label
 _atom_site_symmetry_multiplicity
 _atom_site_fract_x
 _atom_site_fract_y
 _atom_site_fract_z
 _atom_site_occupancy
  Yb  Yb0  1  0.89707136  0.90335703  0.11782306  1
  Yb  Yb1  1  0.89683515  0.62039530  0.55289072  1
  Yb  Yb2  1  0.39799738  0.12257712  0.55325991  1
  Yb  Yb3  1  0.89718342  0.34318709  0.99008250  1
  Pd  Pd4  1  0.39712602  0.28690571  0.26263037  1
  Pd  Pd5  1  0.39649704  0.67841864  0.26318803  1
  Pd  Pd6  1  0.39700300  0.56462491  0.84034270  1
  Pd  Pd7  1  0.39679119  0.95726269  0.84566838  1
