# generated using pymatgen
data_YbSbPd
_symmetry_space_group_name_H-M   'P 1'
_cell_length_a   4.70459747
_cell_length_b   7.34269047
_cell_length_c   7.88732767
_cell_angle_alpha   89.80056000
_cell_angle_beta   90.01073456
_cell_angle_gamma   89.99349976
_symmetry_Int_Tables_number   1
_chemical_formula_structural   YbSbPd
_chemical_formula_sum   'Yb4 Sb4 Pd4'
_cell_volume   272.46136862
_cell_formula_units_Z   4
loop_
 _symmetry_equiv_pos_site_id
 _symmetry_equiv_pos_as_xyz
  1  'x, y, z'
loop_
 _atom_site_type_symbol
 _atom_site_label
 _atom_site_symmetry_multiplicity
 _atom_site_fract_x
 _atom_site_fract_y
 _atom_site_fract_z
 _atom_site_occupancy
  Yb  Yb0  1  0.57013345  0.83552980  0.80354524  1
  Yb  Yb1  1  0.07031851  0.35372764  0.30367666  1
  Yb  Yb2  1  0.06995156  0.85424078  0.40197277  1
  Yb  Yb3  1  0.56962609  0.33574766  0.90174288  1
  Sb  Sb4  1  0.57020080  0.65170634  0.19515723  1
  Sb  Sb5  1  0.07031135  0.53749269  0.69566470  1
  Sb  Sb6  1  0.07012573  0.03827243  0.01001690  1
  Sb  Sb7  1  0.57030588  0.15295564  0.50960910  1
  Pd  Pd8  1  0.57006258  0.03567938  0.18398836  1
  Pd  Pd9  1  0.07046448  0.14981622  0.68381095  1
  Pd  Pd10  1  0.07016980  0.64961803  0.01959534  1
  Pd  Pd11  1  0.57008564  0.53593481  0.52101451  1
