# generated using pymatgen
data_YbTmSe2
_symmetry_space_group_name_H-M   'P 1'
_cell_length_a   4.02762508
_cell_length_b   4.05415010
_cell_length_c   7.29717159
_cell_angle_alpha   73.88909149
_cell_angle_beta   73.84475708
_cell_angle_gamma   59.97627640
_symmetry_Int_Tables_number   1
_chemical_formula_structural   YbTmSe2
_chemical_formula_sum   'Yb1 Tm1 Se2'
_cell_volume   97.71128257
_cell_formula_units_Z   1
loop_
 _symmetry_equiv_pos_site_id
 _symmetry_equiv_pos_as_xyz
  1  'x, y, z'
loop_
 _atom_site_type_symbol
 _atom_site_label
 _atom_site_symmetry_multiplicity
 _atom_site_fract_x
 _atom_site_fract_y
 _atom_site_fract_z
 _atom_site_occupancy
  Yb  Yb0  1  0.00704956  0.55168837  0.01711300  1
  Tm  Tm1  1  0.50764996  0.05238207  0.51738846  1
  Se  Se2  1  0.76064771  0.30494046  0.75609702  1
  Se  Se3  1  0.25358084  0.79718494  0.27849805  1
