# generated using pymatgen
data_YbYPd2
_symmetry_space_group_name_H-M   'P 1'
_cell_length_a   4.93681717
_cell_length_b   4.93505144
_cell_length_c   4.90691471
_cell_angle_alpha   59.80588913
_cell_angle_beta   60.00170898
_cell_angle_gamma   60.08240891
_symmetry_Int_Tables_number   1
_chemical_formula_structural   YbYPd2
_chemical_formula_sum   'Yb1 Y1 Pd2'
_cell_volume   84.46283198
_cell_formula_units_Z   1
loop_
 _symmetry_equiv_pos_site_id
 _symmetry_equiv_pos_as_xyz
  1  'x, y, z'
loop_
 _atom_site_type_symbol
 _atom_site_label
 _atom_site_symmetry_multiplicity
 _atom_site_fract_x
 _atom_site_fract_y
 _atom_site_fract_z
 _atom_site_occupancy
  Yb  Yb0  1  0.12148455  0.74972153  0.23909749  1
  Y  Y1  1  0.62134653  0.24960783  0.73964995  1
  Pd  Pd2  1  0.87176085  0.49934766  0.98915726  1
  Pd  Pd3  1  0.37149200  0.99956882  0.48977008  1
