# generated using pymatgen
data_YCdAu2
_symmetry_space_group_name_H-M   'P 1'
_cell_length_a   4.88070345
_cell_length_b   4.89452124
_cell_length_c   4.87856817
_cell_angle_alpha   59.69889069
_cell_angle_beta   59.76393127
_cell_angle_gamma   59.86299133
_symmetry_Int_Tables_number   1
_chemical_formula_structural   YCdAu2
_chemical_formula_sum   'Y1 Cd1 Au2'
_cell_volume   81.98730600
_cell_formula_units_Z   1
loop_
 _symmetry_equiv_pos_site_id
 _symmetry_equiv_pos_as_xyz
  1  'x, y, z'
loop_
 _atom_site_type_symbol
 _atom_site_label
 _atom_site_symmetry_multiplicity
 _atom_site_fract_x
 _atom_site_fract_y
 _atom_site_fract_z
 _atom_site_occupancy
  Y  Y0  1  0.80059391  0.83457565  0.99248207  1
  Cd  Cd1  1  0.30058157  0.33484620  0.49233949  1
  Au  Au2  1  0.55082852  0.58477885  0.74236226  1
  Au  Au3  1  0.05058688  0.08479312  0.24227180  1
