# generated using pymatgen
data_YCu2
_symmetry_space_group_name_H-M   'P 1'
_cell_length_a   4.39838505
_cell_length_b   5.46064377
_cell_length_c   5.43650579
_cell_angle_alpha   77.36027527
_cell_angle_beta   66.34149933
_cell_angle_gamma   65.99738312
_symmetry_Int_Tables_number   1
_chemical_formula_structural   YCu2
_chemical_formula_sum   'Y2 Cu4'
_cell_volume   109.01626267
_cell_formula_units_Z   2
loop_
 _symmetry_equiv_pos_site_id
 _symmetry_equiv_pos_as_xyz
  1  'x, y, z'
loop_
 _atom_site_type_symbol
 _atom_site_label
 _atom_site_symmetry_multiplicity
 _atom_site_fract_x
 _atom_site_fract_y
 _atom_site_fract_z
 _atom_site_occupancy
  Y  Y0  1  0.92248416  0.65689862  0.14373074  1
  Y  Y1  1  0.82736623  0.24964891  0.74201035  1
  Cu  Cu2  1  0.21289524  0.67284232  0.54863197  1
  Cu  Cu3  1  0.21277219  0.06059043  0.16145547  1
  Cu  Cu4  1  0.53740114  0.23206618  0.33501518  1
  Cu  Cu5  1  0.53841412  0.84181964  0.72328711  1
