# generated using pymatgen
data_YGaIr
_symmetry_space_group_name_H-M   'P 1'
_cell_length_a   4.34972095
_cell_length_b   6.87495470
_cell_length_c   7.72085047
_cell_angle_alpha   89.94367981
_cell_angle_beta   89.86479950
_cell_angle_gamma   90.05271912
_symmetry_Int_Tables_number   1
_chemical_formula_structural   YGaIr
_chemical_formula_sum   'Y4 Ga4 Ir4'
_cell_volume   230.88449845
_cell_formula_units_Z   4
loop_
 _symmetry_equiv_pos_site_id
 _symmetry_equiv_pos_as_xyz
  1  'x, y, z'
loop_
 _atom_site_type_symbol
 _atom_site_label
 _atom_site_symmetry_multiplicity
 _atom_site_fract_x
 _atom_site_fract_y
 _atom_site_fract_z
 _atom_site_occupancy
  Y  Y0  1  0.26418242  0.09463029  0.69277674  1
  Y  Y1  1  0.76432294  0.14091145  0.31742525  1
  Y  Y2  1  0.26460922  0.59451091  0.81734467  1
  Y  Y3  1  0.76425272  0.64139318  0.19289459  1
  Ga  Ga4  1  0.76429987  0.77295035  0.57280731  1
  Ga  Ga5  1  0.76430339  0.27377236  0.93785363  1
  Ga  Ga6  1  0.26449636  0.96661013  0.07266466  1
  Ga  Ga7  1  0.26417252  0.46673238  0.43815500  1
  Ir  Ir8  1  0.26428947  0.84626466  0.39461496  1
  Ir  Ir9  1  0.26436538  0.34666431  0.11553785  1
  Ir  Ir10  1  0.76443928  0.39076576  0.61562282  1
  Ir  Ir11  1  0.76463360  0.88991970  0.89427996  1
