# generated using pymatgen
data_YInRh
_symmetry_space_group_name_H-M   'P 1'
_cell_length_a   3.75800252
_cell_length_b   7.75145197
_cell_length_c   7.77580023
_cell_angle_alpha   119.83519745
_cell_angle_beta   90.03820801
_cell_angle_gamma   90.05509186
_symmetry_Int_Tables_number   1
_chemical_formula_structural   YInRh
_chemical_formula_sum   'Y3 In3 Rh3'
_cell_volume   196.48712440
_cell_formula_units_Z   3
loop_
 _symmetry_equiv_pos_site_id
 _symmetry_equiv_pos_as_xyz
  1  'x, y, z'
loop_
 _atom_site_type_symbol
 _atom_site_label
 _atom_site_symmetry_multiplicity
 _atom_site_fract_x
 _atom_site_fract_y
 _atom_site_fract_z
 _atom_site_occupancy
  Y  Y0  1  0.35370260  0.52400213  0.91885370  1
  Y  Y1  1  0.35379609  0.78925133  0.45045987  1
  Y  Y2  1  0.35354778  0.05517338  0.18353526  1
  In  In3  1  0.85334766  0.79004145  0.78732228  1
  In  In4  1  0.85339862  0.18420123  0.57983971  1
  In  In5  1  0.85393476  0.39227563  0.18412142  1
  Rh  Rh6  1  0.85354507  0.79004633  0.18377854  1
  Rh  Rh7  1  0.35343796  0.12349724  0.85082960  1
  Rh  Rh8  1  0.35367253  0.45686853  0.51841718  1
