# generated using pymatgen
data_YLuHg2
_symmetry_space_group_name_H-M   'P 1'
_cell_length_a   5.22970438
_cell_length_b   5.24176836
_cell_length_c   5.22896719
_cell_angle_alpha   59.83940125
_cell_angle_beta   60.02938461
_cell_angle_gamma   59.99687195
_symmetry_Int_Tables_number   1
_chemical_formula_structural   YLuHg2
_chemical_formula_sum   'Y1 Lu1 Hg2'
_cell_volume   101.25392521
_cell_formula_units_Z   1
loop_
 _symmetry_equiv_pos_site_id
 _symmetry_equiv_pos_as_xyz
  1  'x, y, z'
loop_
 _atom_site_type_symbol
 _atom_site_label
 _atom_site_symmetry_multiplicity
 _atom_site_fract_x
 _atom_site_fract_y
 _atom_site_fract_z
 _atom_site_occupancy
  Y  Y0  1  0.42541230  0.81463081  0.16724564  1
  Lu  Lu1  1  0.92533439  0.31435701  0.66733617  1
  Hg  Hg2  1  0.67519176  0.06427034  0.41698381  1
  Hg  Hg3  1  0.17485592  0.56439406  0.91725200  1
