# generated using pymatgen
data_YMg15
_symmetry_space_group_name_H-M   'P 1'
_cell_length_a   6.39509535
_cell_length_b   6.36720705
_cell_length_c   10.32787037
_cell_angle_alpha   90.02545929
_cell_angle_beta   89.93234253
_cell_angle_gamma   120.20692444
_symmetry_Int_Tables_number   1
_chemical_formula_structural   YMg15
_chemical_formula_sum   'Y1 Mg15'
_cell_volume   363.43585004
_cell_formula_units_Z   1
loop_
 _symmetry_equiv_pos_site_id
 _symmetry_equiv_pos_as_xyz
  1  'x, y, z'
loop_
 _atom_site_type_symbol
 _atom_site_label
 _atom_site_symmetry_multiplicity
 _atom_site_fract_x
 _atom_site_fract_y
 _atom_site_fract_z
 _atom_site_occupancy
  Y  Y0  1  0.59359211  0.74930692  0.02624762  1
  Mg  Mg1  1  0.26147431  0.08255539  0.27584407  1
  Mg  Mg2  1  0.09490830  0.24923722  0.02647239  1
  Mg  Mg3  1  0.26008701  0.58137739  0.77310926  1
  Mg  Mg4  1  0.09516452  0.74950194  0.52616674  1
  Mg  Mg5  1  0.76376921  0.58130950  0.77378953  1
  Mg  Mg6  1  0.76416796  0.58081251  0.27719629  1
  Mg  Mg7  1  0.25995219  0.58091515  0.27800524  1
  Mg  Mg8  1  0.09465791  0.24903685  0.52611244  1
  Mg  Mg9  1  0.76417559  0.08391916  0.77463204  1
  Mg  Mg10  1  0.59411621  0.74929762  0.52616453  1
  Mg  Mg11  1  0.76494789  0.08365875  0.27807996  1
  Mg  Mg12  1  0.26080048  0.08170328  0.77670842  1
  Mg  Mg13  1  0.09491435  0.74885440  0.02613990  1
  Mg  Mg14  1  0.59408820  0.24908699  0.52605420  1
  Mg  Mg15  1  0.59446198  0.24931085  0.02630519  1
