# generated using pymatgen
data_YMg3
_symmetry_space_group_name_H-M   'P 1'
_cell_length_a   5.21585560
_cell_length_b   5.21160078
_cell_length_c   5.19831848
_cell_angle_alpha   59.94325256
_cell_angle_beta   59.97349930
_cell_angle_gamma   60.08639145
_symmetry_Int_Tables_number   1
_chemical_formula_structural   YMg3
_chemical_formula_sum   'Y1 Mg3'
_cell_volume   99.92022318
_cell_formula_units_Z   1
loop_
 _symmetry_equiv_pos_site_id
 _symmetry_equiv_pos_as_xyz
  1  'x, y, z'
loop_
 _atom_site_type_symbol
 _atom_site_label
 _atom_site_symmetry_multiplicity
 _atom_site_fract_x
 _atom_site_fract_y
 _atom_site_fract_z
 _atom_site_occupancy
  Y  Y0  1  0.88174897  0.68129742  0.58423793  1
  Mg  Mg1  1  0.13210791  0.93174171  0.83384919  1
  Mg  Mg2  1  0.38218355  0.18113481  0.08399612  1
  Mg  Mg3  1  0.63211542  0.43145987  0.33354259  1
