# generated using pymatgen
data_YNi4B
_symmetry_space_group_name_H-M   'P 1'
_cell_length_a   5.01395941
_cell_length_b   5.04340315
_cell_length_c   6.90245533
_cell_angle_alpha   90.05274963
_cell_angle_beta   89.97288513
_cell_angle_gamma   119.38743591
_symmetry_Int_Tables_number   1
_chemical_formula_structural   YNi4B
_chemical_formula_sum   'Y2 Ni8 B2'
_cell_volume   152.08497787
_cell_formula_units_Z   2
loop_
 _symmetry_equiv_pos_site_id
 _symmetry_equiv_pos_as_xyz
  1  'x, y, z'
loop_
 _atom_site_type_symbol
 _atom_site_label
 _atom_site_symmetry_multiplicity
 _atom_site_fract_x
 _atom_site_fract_y
 _atom_site_fract_z
 _atom_site_occupancy
  Y  Y0  1  0.33201289  0.15169883  0.21670462  1
  Y  Y1  1  0.33156386  0.15200886  0.71692252  1
  Ni  Ni2  1  0.99853420  0.48532903  0.21603861  1
  Ni  Ni3  1  0.33138523  0.65267521  0.50981200  1
  Ni  Ni4  1  0.33070335  0.65191436  0.92356491  1
  Ni  Ni5  1  0.66522449  0.81859130  0.21595974  1
  Ni  Ni6  1  0.83119053  0.65225238  0.50983024  1
  Ni  Ni7  1  0.83134007  0.15237169  0.92409807  1
  Ni  Ni8  1  0.83233112  0.15259716  0.50933862  1
  Ni  Ni9  1  0.83196974  0.65206516  0.92018056  1
  B  B10  1  0.66485143  0.81894529  0.71672642  1
  B  B11  1  0.99960291  0.48457319  0.71621543  1
