# generated using pymatgen
data_YPt3
_symmetry_space_group_name_H-M   'P 1'
_cell_length_a   4.10562420
_cell_length_b   4.08943939
_cell_length_c   4.08708143
_cell_angle_alpha   89.88484192
_cell_angle_beta   89.79505920
_cell_angle_gamma   90.34677124
_symmetry_Int_Tables_number   1
_chemical_formula_structural   YPt3
_chemical_formula_sum   'Y1 Pt3'
_cell_volume   68.61903918
_cell_formula_units_Z   1
loop_
 _symmetry_equiv_pos_site_id
 _symmetry_equiv_pos_as_xyz
  1  'x, y, z'
loop_
 _atom_site_type_symbol
 _atom_site_label
 _atom_site_symmetry_multiplicity
 _atom_site_fract_x
 _atom_site_fract_y
 _atom_site_fract_z
 _atom_site_occupancy
  Y  Y0  1  0.07194917  0.42408788  0.02402444  1
  Pt  Pt1  1  0.07133865  0.92413449  0.52377659  1
  Pt  Pt2  1  0.57158524  0.92498296  0.02394191  1
  Pt  Pt3  1  0.57172865  0.42396754  0.52375114  1
