# generated using pymatgen
data_ZnCu2GeS4
_symmetry_space_group_name_H-M   'P 1'
_cell_length_a   5.40682125
_cell_length_b   5.41905832
_cell_length_c   6.44692087
_cell_angle_alpha   114.64891815
_cell_angle_beta   114.66782379
_cell_angle_gamma   90.12390137
_symmetry_Int_Tables_number   1
_chemical_formula_structural   ZnCu2GeS4
_chemical_formula_sum   'Zn1 Cu2 Ge1 S4'
_cell_volume   152.42228557
_cell_formula_units_Z   1
loop_
 _symmetry_equiv_pos_site_id
 _symmetry_equiv_pos_as_xyz
  1  'x, y, z'
loop_
 _atom_site_type_symbol
 _atom_site_label
 _atom_site_symmetry_multiplicity
 _atom_site_fract_x
 _atom_site_fract_y
 _atom_site_fract_z
 _atom_site_occupancy
  Zn  Zn0  1  0.50706738  0.01145089  0.93080682  1
  Cu  Cu1  1  0.00566882  0.51140189  0.93064475  1
  Cu  Cu2  1  0.75643116  0.75975674  0.43129325  1
  Ge  Ge3  1  0.25611466  0.26040891  0.43101493  1
  S  S4  1  0.63036418  0.62844300  0.67834502  1
  S  S5  1  0.37744203  0.88658065  0.18284775  1
  S  S6  1  0.12927006  0.13857672  0.67948431  1
  S  S7  1  0.88783574  0.38815179  0.18276262  1
