# generated using pymatgen
data_ZnCu2SnTe4
_symmetry_space_group_name_H-M   'P 1'
_cell_length_a   6.21279526
_cell_length_b   6.23054171
_cell_length_c   7.50117064
_cell_angle_alpha   114.45375061
_cell_angle_beta   114.55107117
_cell_angle_gamma   89.99207306
_symmetry_Int_Tables_number   1
_chemical_formula_structural   ZnCu2SnTe4
_chemical_formula_sum   'Zn1 Cu2 Sn1 Te4'
_cell_volume   235.18399464
_cell_formula_units_Z   1
loop_
 _symmetry_equiv_pos_site_id
 _symmetry_equiv_pos_as_xyz
  1  'x, y, z'
loop_
 _atom_site_type_symbol
 _atom_site_label
 _atom_site_symmetry_multiplicity
 _atom_site_fract_x
 _atom_site_fract_y
 _atom_site_fract_z
 _atom_site_occupancy
  Zn  Zn0  1  0.45882455  0.14113896  0.19836198  1
  Cu  Cu1  1  0.70732558  0.89327246  0.69866669  1
  Cu  Cu2  1  0.20718573  0.39275375  0.69813341  1
  Sn  Sn3  1  0.95798731  0.64183855  0.19873978  1
  Te  Te4  1  0.83508259  0.52169621  0.47333422  1
  Te  Te5  1  0.07767460  0.24650533  0.92636991  1
  Te  Te6  1  0.56210738  0.76435733  0.92596686  1
  Te  Te7  1  0.35390440  0.03591931  0.47353947  1
