# generated using pymatgen
data_ZnNiSb
_symmetry_space_group_name_H-M   'P 1'
_cell_length_a   4.17023945
_cell_length_b   4.18657970
_cell_length_c   4.16061401
_cell_angle_alpha   59.38505554
_cell_angle_beta   59.55458450
_cell_angle_gamma   60.15906143
_symmetry_Int_Tables_number   1
_chemical_formula_structural   ZnNiSb
_chemical_formula_sum   'Zn1 Ni1 Sb1'
_cell_volume   51.00872745
_cell_formula_units_Z   1
loop_
 _symmetry_equiv_pos_site_id
 _symmetry_equiv_pos_as_xyz
  1  'x, y, z'
loop_
 _atom_site_type_symbol
 _atom_site_label
 _atom_site_symmetry_multiplicity
 _atom_site_fract_x
 _atom_site_fract_y
 _atom_site_fract_z
 _atom_site_occupancy
  Zn  Zn0  1  0.31567085  0.38073087  0.86128342  1
  Ni  Ni1  1  0.06534832  0.13088220  0.61127359  1
  Sb  Sb2  1  0.81491035  0.88056362  0.36098474  1
