# generated using pymatgen
data_ZnSb2
_symmetry_space_group_name_H-M   'P 1'
_cell_length_a   5.66847563
_cell_length_b   5.65349293
_cell_length_c   6.84359121
_cell_angle_alpha   114.28089142
_cell_angle_beta   114.09951782
_cell_angle_gamma   90.22364044
_symmetry_Int_Tables_number   1
_chemical_formula_structural   ZnSb2
_chemical_formula_sum   'Zn2 Sb4'
_cell_volume   178.55649747
_cell_formula_units_Z   2
loop_
 _symmetry_equiv_pos_site_id
 _symmetry_equiv_pos_as_xyz
  1  'x, y, z'
loop_
 _atom_site_type_symbol
 _atom_site_label
 _atom_site_symmetry_multiplicity
 _atom_site_fract_x
 _atom_site_fract_y
 _atom_site_fract_z
 _atom_site_occupancy
  Zn  Zn0  1  0.42711875  0.19552156  0.83194613  1
  Zn  Zn1  1  0.17689429  0.43892315  0.33149707  1
  Sb  Sb2  1  0.30214512  0.61723340  0.07608949  1
  Sb  Sb3  1  0.60850203  0.31881946  0.57654339  1
  Sb  Sb4  1  0.00740357  0.81908244  0.57701987  1
  Sb  Sb5  1  0.80222666  0.01426567  0.07702432  1
