# generated using pymatgen
data_Zr2Be17
_symmetry_space_group_name_H-M   'P 1'
_cell_length_a   5.69707108
_cell_length_b   5.71002579
_cell_length_c   5.72218180
_cell_angle_alpha   81.89061737
_cell_angle_beta   81.57758331
_cell_angle_gamma   81.54078674
_symmetry_Int_Tables_number   1
_chemical_formula_structural   Zr2Be17
_chemical_formula_sum   'Zr2 Be17'
_cell_volume   180.77032051
_cell_formula_units_Z   1
loop_
 _symmetry_equiv_pos_site_id
 _symmetry_equiv_pos_as_xyz
  1  'x, y, z'
loop_
 _atom_site_type_symbol
 _atom_site_label
 _atom_site_symmetry_multiplicity
 _atom_site_fract_x
 _atom_site_fract_y
 _atom_site_fract_z
 _atom_site_occupancy
  Zr  Zr0  1  0.83662099  0.94662738  0.14088154  1
  Zr  Zr1  1  0.25801185  0.51908886  0.71668005  1
  Be  Be2  1  0.38762680  0.18708049  0.37063158  1
  Be  Be3  1  0.52880448  0.37528324  0.05996814  1
  Be  Be4  1  0.20015182  0.18791187  0.06703496  1
  Be  Be5  1  0.52923834  0.09413539  0.82376117  1
  Be  Be6  1  0.84026986  0.60490704  0.49331087  1
  Be  Be7  1  0.18110344  0.03655626  0.73437071  1
  Be  Be8  1  0.52861869  0.87315476  0.56165111  1
  Be  Be9  1  0.33879104  0.81141222  0.01031195  1
  Be  Be10  1  0.87453657  0.94114989  0.63388157  1
  Be  Be11  1  0.52947891  0.62350589  0.29859954  1
  Be  Be12  1  0.67947912  0.68058252  0.86578971  1
  Be  Be13  1  0.19435513  0.87279129  0.38901728  1
  Be  Be14  1  0.18001799  0.53657269  0.23536253  1
  Be  Be15  1  0.02672754  0.24665985  0.43708485  1
  Be  Be16  1  0.87637156  0.44416377  0.12578546  1
  Be  Be17  1  0.84004682  0.29820508  0.79936898  1
  Be  Be18  1  0.67436683  0.26417407  0.46668759  1
