# generated using pymatgen
data_Zr2NiP
_symmetry_space_group_name_H-M   'P 1'
_cell_length_a   3.57033253
_cell_length_b   6.08890104
_cell_length_c   6.10752392
_cell_angle_alpha   90.43085480
_cell_angle_beta   90.16053772
_cell_angle_gamma   90.09185791
_symmetry_Int_Tables_number   1
_chemical_formula_structural   Zr2NiP
_chemical_formula_sum   'Zr4 Ni2 P2'
_cell_volume   132.76946396
_cell_formula_units_Z   2
loop_
 _symmetry_equiv_pos_site_id
 _symmetry_equiv_pos_as_xyz
  1  'x, y, z'
loop_
 _atom_site_type_symbol
 _atom_site_label
 _atom_site_symmetry_multiplicity
 _atom_site_fract_x
 _atom_site_fract_y
 _atom_site_fract_z
 _atom_site_occupancy
  Zr  Zr0  1  0.51853853  0.13991594  0.33209026  1
  Zr  Zr1  1  0.51833582  0.14015473  0.83165908  1
  Zr  Zr2  1  0.51783717  0.64013743  0.83149487  1
  Zr  Zr3  1  0.51812530  0.63998443  0.33227977  1
  Ni  Ni4  1  0.01799726  0.89028722  0.58321822  1
  Ni  Ni5  1  0.01792475  0.38999584  0.08358829  1
  P  P6  1  0.01826918  0.89008868  0.08330566  1
  P  P7  1  0.01827363  0.38987878  0.58320296  1
