# generated using pymatgen
data_Zr2VRe3
_symmetry_space_group_name_H-M   'P 1'
_cell_length_a   5.18701315
_cell_length_b   5.20382357
_cell_length_c   8.61793518
_cell_angle_alpha   89.91297913
_cell_angle_beta   89.82470703
_cell_angle_gamma   119.38450623
_symmetry_Int_Tables_number   1
_chemical_formula_structural   Zr2VRe3
_chemical_formula_sum   'Zr4 V2 Re6'
_cell_volume   202.68863589
_cell_formula_units_Z   2
loop_
 _symmetry_equiv_pos_site_id
 _symmetry_equiv_pos_as_xyz
  1  'x, y, z'
loop_
 _atom_site_type_symbol
 _atom_site_label
 _atom_site_symmetry_multiplicity
 _atom_site_fract_x
 _atom_site_fract_y
 _atom_site_fract_z
 _atom_site_occupancy
  Zr  Zr0  1  0.32764956  0.90470499  0.50014955  1
  Zr  Zr1  1  0.32702163  0.90383059  0.87632477  1
  Zr  Zr2  1  0.66039425  0.57045454  0.37798834  1
  Zr  Zr3  1  0.66028315  0.57100570  0.00039244  1
  V  V4  1  0.33517441  0.40731180  0.69175249  1
  V  V5  1  0.99581081  0.23762231  0.93937248  1
  Re  Re6  1  0.99502254  0.23766014  0.44007602  1
  Re  Re7  1  0.16434449  0.06634850  0.18897849  1
  Re  Re8  1  0.65713781  0.06702408  0.18813401  1
  Re  Re9  1  0.16394366  0.57692450  0.18784802  1
  Re  Re10  1  0.82528305  0.89521980  0.69167793  1
  Re  Re11  1  0.82483298  0.40837914  0.69225478  1
