# generated using pymatgen
data_Zr3(CuSi)4
_symmetry_space_group_name_H-M   'P 1'
_cell_length_a   3.89150381
_cell_length_b   6.60515261
_cell_length_c   6.67969990
_cell_angle_alpha   106.10319519
_cell_angle_beta   89.97927094
_cell_angle_gamma   90.00612640
_symmetry_Int_Tables_number   1
_chemical_formula_structural   Zr3(CuSi)4
_chemical_formula_sum   'Zr3 Cu4 Si4'
_cell_volume   164.95816595
_cell_formula_units_Z   1
loop_
 _symmetry_equiv_pos_site_id
 _symmetry_equiv_pos_as_xyz
  1  'x, y, z'
loop_
 _atom_site_type_symbol
 _atom_site_label
 _atom_site_symmetry_multiplicity
 _atom_site_fract_x
 _atom_site_fract_y
 _atom_site_fract_z
 _atom_site_occupancy
  Zr  Zr0  1  0.19840994  0.24073513  0.97080278  1
  Zr  Zr1  1  0.19826536  0.67277545  0.72032166  1
  Zr  Zr2  1  0.19869532  0.12290458  0.47232887  1
  Cu  Cu3  1  0.69802916  0.39033052  0.37595195  1
  Cu  Cu4  1  0.69794011  0.79247707  0.40614459  1
  Cu  Cu5  1  0.69780028  0.98637855  0.09266850  1
  Cu  Cu6  1  0.69828677  0.57053888  0.03710004  1
  Si  Si7  1  0.19784777  0.79803640  0.12653102  1
  Si  Si8  1  0.19836742  0.55052584  0.30959114  1
  Si  Si9  1  0.69838798  0.98855191  0.73284978  1
  Si  Si10  1  0.69813234  0.35151339  0.71940696  1
