# generated using pymatgen
data_Zr3(MnNi2)2
_symmetry_space_group_name_H-M   'P 1'
_cell_length_a   5.04591513
_cell_length_b   5.05016661
_cell_length_c   12.14442539
_cell_angle_alpha   78.12690735
_cell_angle_beta   78.18045044
_cell_angle_gamma   60.43664169
_symmetry_Int_Tables_number   1
_chemical_formula_structural   Zr3(MnNi2)2
_chemical_formula_sum   'Zr6 Mn4 Ni8'
_cell_volume   261.47612713
_cell_formula_units_Z   2
loop_
 _symmetry_equiv_pos_site_id
 _symmetry_equiv_pos_as_xyz
  1  'x, y, z'
loop_
 _atom_site_type_symbol
 _atom_site_label
 _atom_site_symmetry_multiplicity
 _atom_site_fract_x
 _atom_site_fract_y
 _atom_site_fract_z
 _atom_site_occupancy
  Zr  Zr0  1  0.83487880  0.58725435  0.42047262  1
  Zr  Zr1  1  0.59826350  0.34759369  0.13544828  1
  Zr  Zr2  1  0.14821975  0.89432031  0.49835834  1
  Zr  Zr3  1  0.30734137  0.05386727  0.00654421  1
  Zr  Zr4  1  0.06392850  0.81044769  0.75305665  1
  Zr  Zr5  1  0.93070990  0.67816383  0.15276505  1
  Mn  Mn6  1  0.49084899  0.23618011  0.45192859  1
  Mn  Mn7  1  0.25227359  0.00490104  0.22580761  1
  Mn  Mn8  1  0.10605120  0.34787565  0.62553877  1
  Mn  Mn9  1  0.71182120  0.46111849  0.79062176  1
  Ni  Ni10  1  0.83326030  0.08027419  0.94337708  1
  Ni  Ni11  1  0.33111614  0.57967591  0.94511235  1
  Ni  Ni12  1  0.38224390  0.12447565  0.79540765  1
  Ni  Ni13  1  0.38052380  0.62046099  0.30654758  1
  Ni  Ni14  1  0.83295286  0.57984012  0.94601655  1
  Ni  Ni15  1  0.60150498  0.84942210  0.62536997  1
  Ni  Ni16  1  0.86889404  0.11788903  0.30543682  1
  Ni  Ni17  1  0.60035598  0.34786516  0.62573963  1
