# generated using pymatgen
data_ZrI3
_symmetry_space_group_name_H-M   'P 1'
_cell_length_a   8.00316811
_cell_length_b   8.31403160
_cell_length_c   12.57170486
_cell_angle_alpha   100.26974487
_cell_angle_beta   100.56519318
_cell_angle_gamma   111.45946503
_symmetry_Int_Tables_number   1
_chemical_formula_structural   ZrI3
_chemical_formula_sum   'Zr4 I12'
_cell_volume   737.28073749
_cell_formula_units_Z   4
loop_
 _symmetry_equiv_pos_site_id
 _symmetry_equiv_pos_as_xyz
  1  'x, y, z'
loop_
 _atom_site_type_symbol
 _atom_site_label
 _atom_site_symmetry_multiplicity
 _atom_site_fract_x
 _atom_site_fract_y
 _atom_site_fract_z
 _atom_site_occupancy
  Zr  Zr0  1  0.31572723  0.93443912  0.66554314  1
  Zr  Zr1  1  0.31057078  0.25325385  0.49427134  1
  Zr  Zr2  1  0.20485039  0.63331521  0.16264476  1
  Zr  Zr3  1  0.43658733  0.40268865  0.16633262  1
  I  I4  1  0.52933955  0.24228249  0.68993807  1
  I  I5  1  0.19145426  0.86656523  0.38509640  1
  I  I6  1  0.61725813  0.93229365  0.87705594  1
  I  I7  1  0.27196097  0.99884838  0.07741898  1
  I  I8  1  0.99098700  0.12397738  0.57653695  1
  I  I9  1  0.43507975  0.64929652  0.57778245  1
  I  I10  1  0.20274237  0.41003400  0.95010591  1
  I  I11  1  0.63087100  0.34727812  0.37819710  1
  I  I12  1  0.03316776  0.72096038  0.71791941  1
  I  I13  1  0.79340512  0.49516231  0.07734908  1
  I  I14  1  0.12926634  0.32313791  0.26894426  1
  I  I15  1  0.57099736  0.77759749  0.23038597  1
