# generated using pymatgen
data_ZrMnNi
_symmetry_space_group_name_H-M   'P 1'
_cell_length_a   4.92380190
_cell_length_b   4.94561052
_cell_length_c   4.93376064
_cell_angle_alpha   60.18140793
_cell_angle_beta   60.28203201
_cell_angle_gamma   60.22523499
_symmetry_Int_Tables_number   1
_chemical_formula_structural   ZrMnNi
_chemical_formula_sum   'Zr2 Mn2 Ni2'
_cell_volume   85.39532770
_cell_formula_units_Z   2
loop_
 _symmetry_equiv_pos_site_id
 _symmetry_equiv_pos_as_xyz
  1  'x, y, z'
loop_
 _atom_site_type_symbol
 _atom_site_label
 _atom_site_symmetry_multiplicity
 _atom_site_fract_x
 _atom_site_fract_y
 _atom_site_fract_z
 _atom_site_occupancy
  Zr  Zr0  1  0.99945825  0.30211812  0.55341607  1
  Zr  Zr1  1  0.74777669  0.05258848  0.30511618  1
  Mn  Mn2  1  0.37349230  0.17814519  0.93000555  1
  Mn  Mn3  1  0.37364262  0.67909175  0.93009871  1
  Ni  Ni4  1  0.87360018  0.67881918  0.92967969  1
  Ni  Ni5  1  0.37348068  0.67860562  0.43001401  1
