# generated using pymatgen
data_ZrNi3
_symmetry_space_group_name_H-M   'P 1'
_cell_length_a   4.32263994
_cell_length_b   4.87156916
_cell_length_c   5.33176374
_cell_angle_alpha   89.67117310
_cell_angle_beta   89.78920746
_cell_angle_gamma   90.02371216
_symmetry_Int_Tables_number   1
_chemical_formula_structural   ZrNi3
_chemical_formula_sum   'Zr2 Ni6'
_cell_volume   112.27387160
_cell_formula_units_Z   2
loop_
 _symmetry_equiv_pos_site_id
 _symmetry_equiv_pos_as_xyz
  1  'x, y, z'
loop_
 _atom_site_type_symbol
 _atom_site_label
 _atom_site_symmetry_multiplicity
 _atom_site_fract_x
 _atom_site_fract_y
 _atom_site_fract_z
 _atom_site_occupancy
  Zr  Zr0  1  0.83439004  0.29623115  0.68852746  1
  Zr  Zr1  1  0.33481827  0.58473516  0.18909000  1
  Ni  Ni2  1  0.33425897  0.08618832  0.43746328  1
  Ni  Ni3  1  0.83414066  0.79186076  0.43895388  1
  Ni  Ni4  1  0.33382437  0.63852668  0.68957007  1
  Ni  Ni5  1  0.83381528  0.24138373  0.18817151  1
  Ni  Ni6  1  0.33428955  0.08701241  0.93910950  1
  Ni  Ni7  1  0.83417803  0.79206926  0.93849301  1
