# generated using pymatgen
data_ZrReSi
_symmetry_space_group_name_H-M   'P 1'
_cell_length_a   3.64901948
_cell_length_b   6.97433758
_cell_length_c   7.01045418
_cell_angle_alpha   119.85569763
_cell_angle_beta   90.04831696
_cell_angle_gamma   90.18006897
_symmetry_Int_Tables_number   1
_chemical_formula_structural   ZrReSi
_chemical_formula_sum   'Zr3 Re3 Si3'
_cell_volume   154.73258517
_cell_formula_units_Z   3
loop_
 _symmetry_equiv_pos_site_id
 _symmetry_equiv_pos_as_xyz
  1  'x, y, z'
loop_
 _atom_site_type_symbol
 _atom_site_label
 _atom_site_symmetry_multiplicity
 _atom_site_fract_x
 _atom_site_fract_y
 _atom_site_fract_z
 _atom_site_occupancy
  Zr  Zr0  1  0.84694803  0.77110565  0.57310212  1
  Zr  Zr1  1  0.84616399  0.94617635  0.17155586  1
  Zr  Zr2  1  0.84654659  0.35192755  0.98145407  1
  Re  Re3  1  0.84708452  0.33802563  0.57465565  1
  Re  Re4  1  0.34727439  0.35829130  0.30862105  1
  Re  Re5  1  0.34680203  0.62042171  0.83862698  1
  Si  Si6  1  0.34700918  0.09679804  0.57792652  1
  Si  Si7  1  0.34706339  0.01765629  0.90926445  1
  Si  Si8  1  0.34691530  0.68210226  0.23700260  1
