# generated using pymatgen
data_ZrTiCo4
_symmetry_space_group_name_H-M   'P 1'
_cell_length_a   4.79951429
_cell_length_b   4.81816149
_cell_length_c   4.80927944
_cell_angle_alpha   59.86811066
_cell_angle_beta   60.00290680
_cell_angle_gamma   59.90600967
_symmetry_Int_Tables_number   1
_chemical_formula_structural   ZrTiCo4
_chemical_formula_sum   'Zr1 Ti1 Co4'
_cell_volume   78.50721605
_cell_formula_units_Z   1
loop_
 _symmetry_equiv_pos_site_id
 _symmetry_equiv_pos_as_xyz
  1  'x, y, z'
loop_
 _atom_site_type_symbol
 _atom_site_label
 _atom_site_symmetry_multiplicity
 _atom_site_fract_x
 _atom_site_fract_y
 _atom_site_fract_z
 _atom_site_occupancy
  Zr  Zr0  1  0.06562639  0.66131765  0.90474910  1
  Ti  Ti1  1  0.31606415  0.91096240  0.15570639  1
  Co  Co2  1  0.69169194  0.78610724  0.52753097  1
  Co  Co3  1  0.69099069  0.28619823  0.52882034  1
  Co  Co4  1  0.69129539  0.28582829  0.03018213  1
  Co  Co5  1  0.19196035  0.28556532  0.52818125  1
