# generated using pymatgen
data_ZrTi3As2
_symmetry_space_group_name_H-M   'P 1'
_cell_length_a   3.77918386
_cell_length_b   3.77760196
_cell_length_c   7.30462360
_cell_angle_alpha   90.12788391
_cell_angle_beta   89.98129272
_cell_angle_gamma   89.90853119
_symmetry_Int_Tables_number   1
_chemical_formula_structural   ZrTi3As2
_chemical_formula_sum   'Zr1 Ti3 As2'
_cell_volume   104.28225167
_cell_formula_units_Z   1
loop_
 _symmetry_equiv_pos_site_id
 _symmetry_equiv_pos_as_xyz
  1  'x, y, z'
loop_
 _atom_site_type_symbol
 _atom_site_label
 _atom_site_symmetry_multiplicity
 _atom_site_fract_x
 _atom_site_fract_y
 _atom_site_fract_z
 _atom_site_occupancy
  Zr  Zr0  1  0.41286001  0.54911429  0.02459383  1
  Ti  Ti1  1  0.91254056  0.54811287  0.65250164  1
  Ti  Ti2  1  0.41269925  0.04836172  0.65002578  1
  Ti  Ti3  1  0.91274112  0.04856813  0.29165998  1
  As  As4  1  0.41261247  0.54821622  0.39440185  1
  As  As5  1  0.91265333  0.04862464  0.91135907  1
