# generated using pymatgen
data_ZrTiRh
_symmetry_space_group_name_H-M   'P 1'
_cell_length_a   3.46144104
_cell_length_b   4.25060987
_cell_length_c   14.93865776
_cell_angle_alpha   89.87927246
_cell_angle_beta   90.02619171
_cell_angle_gamma   90.19794464
_symmetry_Int_Tables_number   1
_chemical_formula_structural   ZrTiRh
_chemical_formula_sum   'Zr4 Ti4 Rh4'
_cell_volume   219.79416731
_cell_formula_units_Z   4
loop_
 _symmetry_equiv_pos_site_id
 _symmetry_equiv_pos_as_xyz
  1  'x, y, z'
loop_
 _atom_site_type_symbol
 _atom_site_label
 _atom_site_symmetry_multiplicity
 _atom_site_fract_x
 _atom_site_fract_y
 _atom_site_fract_z
 _atom_site_occupancy
  Zr  Zr0  1  0.22272791  0.08772960  0.00109036  1
  Zr  Zr1  1  0.72263026  0.08752105  0.20431365  1
  Zr  Zr2  1  0.22263673  0.58729917  0.74012285  1
  Zr  Zr3  1  0.22238432  0.08747010  0.39873394  1
  Ti  Ti4  1  0.72278917  0.58649486  0.91006315  1
  Ti  Ti5  1  0.22246242  0.58677840  0.20417207  1
  Ti  Ti6  1  0.72271132  0.58662367  0.52014405  1
  Ti  Ti7  1  0.72294593  0.08685351  0.65825200  1
  Rh  Rh8  1  0.72250271  0.08688557  0.82658398  1
  Rh  Rh9  1  0.72261530  0.58693826  0.34207058  1
  Rh  Rh10  1  0.22241053  0.08676689  0.57095140  1
  Rh  Rh11  1  0.72260660  0.58718538  0.07293965  1
