# generated using pymatgen
data_ZrTiC2
_symmetry_space_group_name_H-M   'P 1'
_cell_length_a   3.36347842
_cell_length_b   3.35300875
_cell_length_c   5.44798517
_cell_angle_alpha   90.16211700
_cell_angle_beta   90.06102753
_cell_angle_gamma   120.86658478
_symmetry_Int_Tables_number   1
_chemical_formula_structural   ZrTiC2
_chemical_formula_sum   'Zr1 Ti1 C2'
_cell_volume   52.73843892
_cell_formula_units_Z   1
loop_
 _symmetry_equiv_pos_site_id
 _symmetry_equiv_pos_as_xyz
  1  'x, y, z'
loop_
 _atom_site_type_symbol
 _atom_site_label
 _atom_site_symmetry_multiplicity
 _atom_site_fract_x
 _atom_site_fract_y
 _atom_site_fract_z
 _atom_site_occupancy
  Zr  Zr0  1  0.06179313  0.76492590  0.59191543  1
  Ti  Ti1  1  0.72855234  0.09756275  0.01016415  1
  C  C2  1  0.72833455  0.09777330  0.37849566  1
  C  C3  1  0.39509782  0.43160108  0.85556644  1
