# generated using pymatgen
data_ZrUAl6
_symmetry_space_group_name_H-M   'P 1'
_cell_length_a   4.71224594
_cell_length_b   6.02139807
_cell_length_c   6.01897144
_cell_angle_alpha   120.31710052
_cell_angle_beta   90.09944916
_cell_angle_gamma   90.01429749
_symmetry_Int_Tables_number   1
_chemical_formula_structural   ZrUAl6
_chemical_formula_sum   'Zr1 U1 Al6'
_cell_volume   147.42820705
_cell_formula_units_Z   1
loop_
 _symmetry_equiv_pos_site_id
 _symmetry_equiv_pos_as_xyz
  1  'x, y, z'
loop_
 _atom_site_type_symbol
 _atom_site_label
 _atom_site_symmetry_multiplicity
 _atom_site_fract_x
 _atom_site_fract_y
 _atom_site_fract_z
 _atom_site_occupancy
  Zr  Zr0  1  0.75669992  0.59058607  0.96945924  1
  U  U1  1  0.25654659  0.25902256  0.30180296  1
  Al  Al2  1  0.25633454  0.76782793  0.32046795  1
  Al  Al3  1  0.75628358  0.08348662  0.94571036  1
  Al  Al4  1  0.25613379  0.24420181  0.79805827  1
  Al  Al5  1  0.75634587  0.08316587  0.47728029  1
  Al  Al6  1  0.75571382  0.61564815  0.47811162  1
  Al  Al7  1  0.25609803  0.76733559  0.79648304  1
