# generated using pymatgen
data_ZrVMo
_symmetry_space_group_name_H-M   'P 1'
_cell_length_a   5.28762960
_cell_length_b   5.32723236
_cell_length_c   5.30670929
_cell_angle_alpha   60.17502213
_cell_angle_beta   60.04306412
_cell_angle_gamma   60.05688477
_symmetry_Int_Tables_number   1
_chemical_formula_structural   ZrVMo
_chemical_formula_sum   'Zr2 V2 Mo2'
_cell_volume   105.91869512
_cell_formula_units_Z   2
loop_
 _symmetry_equiv_pos_site_id
 _symmetry_equiv_pos_as_xyz
  1  'x, y, z'
loop_
 _atom_site_type_symbol
 _atom_site_label
 _atom_site_symmetry_multiplicity
 _atom_site_fract_x
 _atom_site_fract_y
 _atom_site_fract_z
 _atom_site_occupancy
  Zr  Zr0  1  0.19179468  0.51294339  0.61193627  1
  Zr  Zr1  1  0.44321141  0.76211834  0.86085272  1
  V  V2  1  0.81715059  0.13719748  0.73615736  1
  V  V3  1  0.31711555  0.13711523  0.23632677  1
  Mo  Mo4  1  0.81754965  0.63650161  0.23660973  1
  Mo  Mo5  1  0.81785834  0.13707846  0.23577707  1
